-------------------------------------------------------
          Amber 16 PMEMD                              2016
          -------------------------------------------------------

  [-O]verwriting output

File Assignments:

 Here is the input file:

TI/FEP, NpT, decharge transformation
 &cntrl
 ! please adjust namelist parameters to your needs!

 ! parameters for general MD
 imin = 0, nstlim = 500000, irest = 1, ntx = 5, dt = 0.002,
 ntt = 3, temp0 = 298.0, gamma_ln = 2.0, ig = -1,
 ntb = 2,
 ntp = 1, barostat = 2, pres0 = 1.01325, taup = 2.0,
 ntwe = 100, ntwx = 10000, ntpr = 1000, ntwr = 50000, ntave = 50000,
 ioutfm = 1, iwrap = 1, ntxo = 2,

 ! parameters for alchemical free energy simulation
 ntc = 2, ntf = 1,
 noshakemask = ':1,2',

 icfe = 1, ifsc = 0, clambda = 0.25, scalpha = 0.5, scbeta = 12.0,
 ifmbar = 1, mbar_lambda = 0.00 0.25 0.50 0.75 1.00,
 mbar_states = 5, bar_intervall = 1000,   ! ntpr = bar_intervall for alchemical

 timask1=':1', timask2=':2',
scmask1='',
scmask2='',
 crgmask = ':2@H34',
 /
 &ewald
 /

Note: ig = -1. Setting random seed to   748345 based on wallclock time in
      microseconds.

--------------------------------------------------------------------------------
   1.  RESOURCE   USE:
--------------------------------------------------------------------------------

 getting box info from netcdf restart file
 NATOM  =   46594 NTYPES =      28 NBONH =   43476 MBONA  =    3193
 NTHETH =    6829 MTHETA =    4351 NPHIH =   13982 MPHIA  =   13700
 NHPARM =       0 NPARM  =       0 NNB   =   87745 NRES   =   13889
 NBONA  =    3193 NTHETA =    4351 NPHIA =   13700 NUMBND =      89
 NUMANG =     195 NPTRA  =     203 NATYP =      50 NPHB   =       1
 IFBOX  =       1 NMXRS  =      43 IFCAP =       0 NEXTRA =       0
 NCOPY  =       0

     BOX TYPE: RECTILINEAR

--------------------------------------------------------------------------------
   2.  CONTROL  DATA  FOR  THE  RUN
--------------------------------------------------------------------------------

L0

General flags:
     imin    =       0, nmropt  =       0

Nature and format of input:
     ntx     =       5, irest   =       1, ntrx    =       1

Nature and format of output:
     ntxo    =       2, ntpr    =    1000, ntrx    =       1, ntwr    =   50000
     iwrap   =       1, ntwx    =   10000, ntwv    =       0, ntwe    =     100
     ioutfm  =       1, ntwprt  =       0, idecomp =       0, rbornstat=      0

Potential function:
     ntf     =       1, ntb     =       2, igb     =       0, nsnb    =      25
     ipol    =       0, gbsa    =       0, iesp    =       0
     dielc   =   1.00000, cut     =   8.00000, intdiel =   1.00000

Frozen or restrained atoms:
     ibelly  =       0, ntr     =       0

Molecular dynamics:
     nstlim  =    500000, nscm    =      1000, nrespa  =         1
     t       =   0.00000, dt      =   0.00200, vlimit  =  -1.00000

Langevin dynamics temperature regulation:
     ig      =  748345
     temp0   = 298.00000, tempi   =   0.00000, gamma_ln=   2.00000

Pressure regulation:
     ntp     =       1
     pres0   =   1.01325, comp    =  44.60000, taup    =   2.00000
     Monte-Carlo Barostat:
     mcbarint  =     100

SHAKE:
     ntc     =       2, jfastw  =       0
     tol     =   0.00001

Free energy options:
     icfe    =       1, ifsc    =       0, klambda =       1
     clambda =  0.2500, scalpha =  0.5000, scbeta  = 12.0000
     sceeorder =       2
     dynlmb =  0.0000 logdvdl =       0

FEP MBAR options:
     ifmbar  =       1,  bar_intervall =     1000
     mbar_states =       5

Ewald parameters:
     verbose =       0, ew_type =       0, nbflag  =       1, use_pme =       1
     vdwmeth =       1, eedmeth =       1, netfrc  =       1
     Box X =   87.894   Box Y =   67.207   Box Z =   78.608
     Alpha =   90.000   Beta  =   90.000   Gamma =   90.000
     NFFT1 =   96       NFFT2 =   64       NFFT3 =   80
     Cutoff=    8.000   Tol   =0.100E-04
     Ewald Coefficient =  0.34864
     Interpolation order =    4
     TI Mask 1 :1; matches     43 atoms
     TI Mask 2 :2; matches     43 atoms
     TI region 1:   46551 atoms
     TI region 2:   46551 atoms
Removing charge of       0.1510 from atom      86
Total charge of   0.15104700 removed from       1 atoms

    MBAR - lambda values considered:
       5 total:  0.0000 0.2500 0.5000 0.7500 1.0000
    Extra energies will be computed    500 times.
     Checking for mismatched coordinates.
 Noshake mask :1,2; matches      86 atoms.

--------------------------------------------------------------------------------
   3.  ATOMIC COORDINATES AND VELOCITIES
--------------------------------------------------------------------------------

L0
 begin time read from input coords =    20.000 ps

 Number of triangulated 3-point waters found:    13488
   Removing shake constraints from C22   L0    1 -- H41   L0    1
   Removing shake constraints from C22   L0    1 -- H42   L0    1
   Removing shake constraints from C21   L0    1 -- H39   L0    1
   Removing shake constraints from C21   L0    1 -- H40   L0    1
   Removing shake constraints from C20   L0    1 -- H38   L0    1
   Removing shake constraints from C19   L0    1 -- H37   L0    1
   Removing shake constraints from C18   L0    1 -- H36   L0    1
   Removing shake constraints from C15   L0    1 -- H35   L0    1
   Removing shake constraints from C14   L0    1 -- H34   L0    1
   Removing shake constraints from C13   L0    1 -- H33   L0    1
   Removing shake constraints from C10   L0    1 -- H32   L0    1
   Removing shake constraints from C9    L0    1 -- H31   L0    1
   Removing shake constraints from C8    L0    1 -- H30   L0    1
   Removing shake constraints from N5    L0    1 -- H29   L0    1
   Removing shake constraints from N4    L0    1 -- H43   L0    1
   Removing shake constraints from N4    L0    1 -- H28   L0    1
   Removing shake constraints from C1    L0    1 -- H25   L0    1
   Removing shake constraints from C1    L0    1 -- H26   L0    1
   Removing shake constraints from C1    L0    1 -- H27   L0    1
   Removing shake constraints from C22   L0    2 -- H41   L0    2
   Removing shake constraints from C22   L0    2 -- H42   L0    2
   Removing shake constraints from C21   L0    2 -- H39   L0    2
   Removing shake constraints from C21   L0    2 -- H40   L0    2
   Removing shake constraints from C20   L0    2 -- H38   L0    2
   Removing shake constraints from C19   L0    2 -- H37   L0    2
   Removing shake constraints from C18   L0    2 -- H36   L0    2
   Removing shake constraints from C15   L0    2 -- H35   L0    2
   Removing shake constraints from C14   L0    2 -- H34   L0    2
   Removing shake constraints from C13   L0    2 -- H33   L0    2
   Removing shake constraints from C10   L0    2 -- H32   L0    2
   Removing shake constraints from C9    L0    2 -- H31   L0    2
   Removing shake constraints from C8    L0    2 -- H30   L0    2
   Removing shake constraints from N5    L0    2 -- H29   L0    2
   Removing shake constraints from N4    L0    2 -- H43   L0    2
   Removing shake constraints from N4    L0    2 -- H28   L0    2
   Removing shake constraints from C1    L0    2 -- H25   L0    2
   Removing shake constraints from C1    L0    2 -- H26   L0    2
   Removing shake constraints from C1    L0    2 -- H27   L0    2
 Number of shake restraints removed:       38

     Sum of charges for TI region  1 =   0.00001978
     Forcing neutrality...

     Sum of charges for TI region  2 =  -0.15102723
     Assuming uniform neutralizing plasma

--------------------------------------------------------------------------------
   4.  RESULTS
 NSTEP =     1000   TIME(PS) =      22.000  TEMP(K) =   284.66  PRESS =     0.0
 Etot   =   -116942.7333  EKtot   =     27218.0820  EPtot      =   -144160.8153
 BOND   =      1145.8361  ANGLE   =      3029.9275  DIHED      =      4866.2633
 1-4 NB =      1396.1931  1-4 EEL =     16011.3799  VDWAALS    =     17295.5265
 EELEC  =   -187905.9418  EHBOND  =         0.0000  RESTRAINT  =         0.0000
 EKCMT  =         0.0000  VIRIAL  =         0.0000  VOLUME     =    465589.6909
                                                    Density    =         1.0233
 DV/DL  =        -3.9370
 ------------------------------------------------------------------------------

      A V E R A G E S   O V E R   50000 S T E P S

 NSTEP =    50000   TIME(PS) =     120.000  TEMP(K) =   296.63  PRESS =     0.0
 Etot   =   -111613.0207  EKtot   =     28363.2686  EPtot      =   -139976.2893
 BOND   =      1186.6540  ANGLE   =      3063.9247  DIHED      =      4885.0555
 1-4 NB =      1409.5576  1-4 EEL =     15996.4457  VDWAALS    =     15727.2947
 EELEC  =   -182245.2215  EHBOND  =         0.0000  RESTRAINT  =         0.0000
 EKCMT  =         0.0000  VIRIAL  =         0.0000  VOLUME     =    462908.7415
                                                    Density    =         1.0293
 DV/DL  =        -4.3570
 ------------------------------------------------------------------------------

      R M S  F L U C T U A T I O N S

 NSTEP =    50000   TIME(PS) =     120.000  TEMP(K) =    10.35  PRESS =     0.0
 Etot   =      3090.7901  EKtot   =       989.3305  EPtot      =      2121.8966
 BOND   =        48.2089  ANGLE   =        98.4557  DIHED      =        33.1901
 1-4 NB =        16.1070  1-4 EEL =        41.1022  VDWAALS    =       869.6736
 EELEC  =      2831.3403  EHBOND  =         0.0000  RESTRAINT  =         0.0000
 EKCMT  =         0.0000  VIRIAL  =         0.0000  VOLUME     =      1338.1714
                                                    Density    =         0.0030
 DV/DL  =         1.2484
 ------------------------------------------------------------------------------

      A V E R A G E S   O V E R   50000 S T E P S

 NSTEP =    50000   TIME(PS) =     120.000  TEMP(K) =   296.63  PRESS =     0.0
 Etot   =   -111613.0207  EKtot   =     28363.2686  EPtot      =   -139976.2893
 BOND   =      1186.6540  ANGLE   =      3063.9247  DIHED      =      4885.0555
 1-4 NB =      1409.5576  1-4 EEL =     15996.4457  VDWAALS    =     15727.2947
 EELEC  =   -182245.2215  EHBOND  =         0.0000  RESTRAINT  =         0.0000
 EKCMT  =         0.0000  VIRIAL  =         0.0000  VOLUME     =    462908.7415
                                                    Density    =         1.0293
 DV/DL  =        -4.3570
 ------------------------------------------------------------------------------

      R M S  F L U C T U A T I O N S

 NSTEP =    50000   TIME(PS) =     120.000  TEMP(K) =    10.35  PRESS =     0.0
 Etot   =      3090.7901  EKtot   =       989.3305  EPtot      =      2121.8966
 BOND   =        48.2089  ANGLE   =        98.4557  DIHED      =        33.1901
 1-4 NB =        16.1070  1-4 EEL =        41.1022  VDWAALS    =       869.6736
 EELEC  =      2831.3403  EHBOND  =         0.0000  RESTRAINT  =         0.0000
 EKCMT  =         0.0000  VIRIAL  =         0.0000  VOLUME     =      1338.1714
                                                    Density    =         0.0030
 DV/DL  =         1.2484
 ------------------------------------------------------------------------------

      DV/DL, AVERAGES OVER   50000 STEPS

 NSTEP =    50000   TIME(PS) =     120.000  TEMP(K) =    10.35  PRESS =     0.0
 Etot   =         0.0000  EKtot   =         0.0000  EPtot      =        -4.3137
 BOND   =         0.0000  ANGLE   =         0.0000  DIHED      =         0.0000
 1-4 NB =         0.0000  1-4 EEL =         0.0000  VDWAALS    =         0.0000
 EELEC  =         1.4899  EHBOND  =         0.0000  RESTRAINT  =         0.0000
 EKCMT  =         0.0000  VIRIAL  =         0.0000  VOLUME     =         0.0000
                                                    Density    =         0.0000
 DV/DL  =        -4.3137
 ------------------------------------------------------------------------------

      A V E R A G E S   O V E R   50000 S T E P S

 NSTEP =   100000   TIME(PS) =     220.000  TEMP(K) =   297.98  PRESS =     0.0
 Etot   =   -111202.1121  EKtot   =     28491.7287  EPtot      =   -139693.8407
 BOND   =      1189.0055  ANGLE   =      3068.4494  DIHED      =      4876.2164
 1-4 NB =      1409.9309  1-4 EEL =     15976.6069  VDWAALS    =     15612.7750
 EELEC  =   -181826.8250  EHBOND  =         0.0000  RESTRAINT  =         0.0000
 EKCMT  =         0.0000  VIRIAL  =         0.0000  VOLUME     =    462212.0007
                                                    Density    =         1.0308
 DV/DL  =        -4.3664
 ------------------------------------------------------------------------------

      R M S  F L U C T U A T I O N S

 NSTEP =   100000   TIME(PS) =     220.000  TEMP(K) =     1.35  PRESS =     0.0
 Etot   =       225.1623  EKtot   =       128.8466  EPtot      =       186.4899
 BOND   =        28.9105  ANGLE   =        42.0185  DIHED      =        24.0767
 1-4 NB =        15.4548  1-4 EEL =        44.4758  VDWAALS    =       177.8581
 EELEC  =       275.4373  EHBOND  =         0.0000  RESTRAINT  =         0.0000
 EKCMT  =         0.0000  VIRIAL  =         0.0000  VOLUME     =       922.9659
                                                    Density    =         0.0021
 DV/DL  =         1.2854
 ------------------------------------------------------------------------------

      A V E R A G E S   O V E R   50000 S T E P S

 NSTEP =   100000   TIME(PS) =     220.000  TEMP(K) =   297.98  PRESS =     0.0
 Etot   =   -111202.1121  EKtot   =     28491.7287  EPtot      =   -139693.8407
 BOND   =      1189.0055  ANGLE   =      3068.4494  DIHED      =      4876.2164
 1-4 NB =      1409.9309  1-4 EEL =     15976.6069  VDWAALS    =     15612.7750
 EELEC  =   -181826.8250  EHBOND  =         0.0000  RESTRAINT  =         0.0000
 EKCMT  =         0.0000  VIRIAL  =         0.0000  VOLUME     =    462212.0007
                                                    Density    =         1.0308
 DV/DL  =        -4.3664
 ------------------------------------------------------------------------------

      R M S  F L U C T U A T I O N S

 NSTEP =   100000   TIME(PS) =     220.000  TEMP(K) =     1.35  PRESS =     0.0
 Etot   =       225.1623  EKtot   =       128.8466  EPtot      =       186.4899
 BOND   =        28.9105  ANGLE   =        42.0185  DIHED      =        24.0767
 1-4 NB =        15.4548  1-4 EEL =        44.4758  VDWAALS    =       177.8581
 EELEC  =       275.4373  EHBOND  =         0.0000  RESTRAINT  =         0.0000
 EKCMT  =         0.0000  VIRIAL  =         0.0000  VOLUME     =       922.9659
                                                    Density    =         0.0021
 DV/DL  =         1.2854
 ------------------------------------------------------------------------------

      DV/DL, AVERAGES OVER   50000 STEPS

 NSTEP =   100000   TIME(PS) =     220.000  TEMP(K) =     1.35  PRESS =     0.0
 Etot   =         0.0000  EKtot   =         0.0000  EPtot      =        -4.3222
 BOND   =         0.0000  ANGLE   =         0.0000  DIHED      =         0.0000
 1-4 NB =         0.0000  1-4 EEL =         0.0000  VDWAALS    =         0.0000
 EELEC  =         1.4899  EHBOND  =         0.0000  RESTRAINT  =         0.0000
 EKCMT  =         0.0000  VIRIAL  =         0.0000  VOLUME     =         0.0000
                                                    Density    =         0.0000
 DV/DL  =        -4.3222
 ------------------------------------------------------------------------------

      A V E R A G E S   O V E R   50000 S T E P S

 NSTEP =   500000   TIME(PS) =    1020.000  TEMP(K) =   298.15  PRESS =     0.0
 Etot   =   -111120.9627  EKtot   =     28508.6750  EPtot      =   -139629.6376
 BOND   =      1192.3843  ANGLE   =      3071.7106  DIHED      =      4869.5088
 1-4 NB =      1415.4842  1-4 EEL =     15991.5955  VDWAALS    =     15586.1092
 EELEC  =   -181756.4302  EHBOND  =         0.0000  RESTRAINT  =         0.0000
 EKCMT  =         0.0000  VIRIAL  =         0.0000  VOLUME     =    463062.8015
                                                    Density    =         1.0289
 DV/DL  =        -4.5726
 ------------------------------------------------------------------------------

      R M S  F L U C T U A T I O N S

 NSTEP =   500000   TIME(PS) =    1020.000  TEMP(K) =     1.35  PRESS =     0.0
 Etot   =       221.9586  EKtot   =       129.1457  EPtot      =       181.8561
 BOND   =        29.3208  ANGLE   =        42.0394  DIHED      =        24.1893
 1-4 NB =        15.5253  1-4 EEL =        42.3939  VDWAALS    =       178.6678
 EELEC  =       278.8019  EHBOND  =         0.0000  RESTRAINT  =         0.0000
 EKCMT  =         0.0000  VIRIAL  =         0.0000  VOLUME     =       948.8524
                                                    Density    =         0.0021
 DV/DL  =         1.3930
 ------------------------------------------------------------------------------

      A V E R A G E S   O V E R   50000 S T E P S

 NSTEP =   500000   TIME(PS) =    1020.000  TEMP(K) =   298.15  PRESS =     0.0
 Etot   =   -111120.9627  EKtot   =     28508.6750  EPtot      =   -139629.6376
 BOND   =      1192.3843  ANGLE   =      3071.7106  DIHED      =      4869.5088
 1-4 NB =      1415.4842  1-4 EEL =     15991.5955  VDWAALS    =     15586.1092
 EELEC  =   -181756.4302  EHBOND  =         0.0000  RESTRAINT  =         0.0000
 EKCMT  =         0.0000  VIRIAL  =         0.0000  VOLUME     =    463062.8015
                                                    Density    =         1.0289
 DV/DL  =        -4.5726
 ------------------------------------------------------------------------------

      R M S  F L U C T U A T I O N S

 NSTEP =   500000   TIME(PS) =    1020.000  TEMP(K) =     1.35  PRESS =     0.0
 Etot   =       221.9586  EKtot   =       129.1457  EPtot      =       181.8561
 BOND   =        29.3208  ANGLE   =        42.0394  DIHED      =        24.1893
 1-4 NB =        15.5253  1-4 EEL =        42.3939  VDWAALS    =       178.6678
 EELEC  =       278.8019  EHBOND  =         0.0000  RESTRAINT  =         0.0000
 EKCMT  =         0.0000  VIRIAL  =         0.0000  VOLUME     =       948.8524
                                                    Density    =         0.0021
 DV/DL  =         1.3930
 ------------------------------------------------------------------------------

      DV/DL, AVERAGES OVER   50000 STEPS

 NSTEP =   500000   TIME(PS) =    1020.000  TEMP(K) =     1.35  PRESS =     0.0
 Etot   =         0.0000  EKtot   =         0.0000  EPtot      =        -4.5265
 BOND   =         0.0000  ANGLE   =         0.0000  DIHED      =         0.0000
 1-4 NB =         0.0000  1-4 EEL =         0.0000  VDWAALS    =         0.0000
 EELEC  =         1.4899  EHBOND  =         0.0000  RESTRAINT  =         0.0000
 EKCMT  =         0.0000  VIRIAL  =         0.0000  VOLUME     =         0.0000
                                                    Density    =         0.0000
 DV/DL  =        -4.5265
 ------------------------------------------------------------------------------

      A V E R A G E S   O V E R  500000 S T E P S

 NSTEP =   500000   TIME(PS) =    1020.000  TEMP(K) =   297.88  PRESS =     0.0
 Etot   =   -111213.3997  EKtot   =     28482.5192  EPtot      =   -139695.9188
 BOND   =      1189.8359  ANGLE   =      3067.7703  DIHED      =      4873.6490
 1-4 NB =      1413.0356  1-4 EEL =     15986.4747  VDWAALS    =     15609.0688
 EELEC  =   -181835.7531  EHBOND  =         0.0000  RESTRAINT  =         0.0000
 EKCMT  =         0.0000  VIRIAL  =         0.0000  VOLUME     =    462795.2462
                                                    Density    =         1.0295
 DV/DL  =        -4.5305
 ------------------------------------------------------------------------------

      R M S  F L U C T U A T I O N S

 NSTEP =   500000   TIME(PS) =    1020.000  TEMP(K) =     3.54  PRESS =     0.0
 Etot   =      1009.9558  EKtot   =       338.6140  EPtot      =       700.4870
 BOND   =        31.4010  ANGLE   =        50.8553  DIHED      =        25.5543
 1-4 NB =        15.5355  1-4 EEL =        43.1983  VDWAALS    =       328.0463
 EELEC  =       946.7458  EHBOND  =         0.0000  RESTRAINT  =         0.0000
 EKCMT  =         0.0000  VIRIAL  =         0.0000  VOLUME     =      1045.5709
                                                    Density    =         0.0023
 DV/DL  =         1.3171
 ------------------------------------------------------------------------------

      A V E R A G E S   O V E R  500000 S T E P S

 NSTEP =   500000   TIME(PS) =    1020.000  TEMP(K) =   297.88  PRESS =     0.0
 Etot   =   -111213.3997  EKtot   =     28482.5192  EPtot      =   -139695.9188
 BOND   =      1189.8359  ANGLE   =      3067.7703  DIHED      =      4873.6490
 1-4 NB =      1413.0356  1-4 EEL =     15986.4747  VDWAALS    =     15609.0688
 EELEC  =   -181835.7531  EHBOND  =         0.0000  RESTRAINT  =         0.0000
 EKCMT  =         0.0000  VIRIAL  =         0.0000  VOLUME     =    462795.2462
                                                    Density    =         1.0295
 DV/DL  =        -4.5305
 ------------------------------------------------------------------------------

      R M S  F L U C T U A T I O N S

 NSTEP =   500000   TIME(PS) =    1020.000  TEMP(K) =     3.54  PRESS =     0.0
 Etot   =      1009.9558  EKtot   =       338.6140  EPtot      =       700.4870
 BOND   =        31.4010  ANGLE   =        50.8553  DIHED      =        25.5543
 1-4 NB =        15.5355  1-4 EEL =        43.1983  VDWAALS    =       328.0463
 EELEC  =       946.7458  EHBOND  =         0.0000  RESTRAINT  =         0.0000
 EKCMT  =         0.0000  VIRIAL  =         0.0000  VOLUME     =      1045.5709
                                                    Density    =         0.0023
 DV/DL  =         1.3171
 ------------------------------------------------------------------------------

      DV/DL, AVERAGES OVER  500000 STEPS

 NSTEP =   500000   TIME(PS) =    1020.000  TEMP(K) =     3.54  PRESS =     0.0
 Etot   =         0.0000  EKtot   =         0.0000  EPtot      =        -4.4852
 BOND   =         0.0000  ANGLE   =         0.0000  DIHED      =         0.0000
 1-4 NB =         0.0000  1-4 EEL =         0.0000  VDWAALS    =         0.0000
 EELEC  =         1.4899  EHBOND  =         0.0000  RESTRAINT  =         0.0000
 EKCMT  =         0.0000  VIRIAL  =         0.0000  VOLUME     =         0.0000
                                                    Density    =         0.0000
 DV/DL  =        -4.4852
 ------------------------------------------------------------------------------
