-------------------------------------------------------
          Amber 16 PMEMD                              2016
          -------------------------------------------------------

  [-O]verwriting output

File Assignments:

 Here is the input file:

TI/FEP, NpT, recharge transformation
 &cntrl
 ! please adjust namelist parameters to your needs!

 ! parameters for general MD
 imin = 0, nstlim = 500000, irest = 1, ntx = 5, dt = 0.002,
 ntt = 3, temp0 = 298.0, gamma_ln = 2.0, ig = -1,
 ntb = 2,
 ntp = 1, barostat = 2, pres0 = 1.01325, taup = 2.0,
 ntwe = 100, ntwx = 10000, ntpr = 1000, ntwr = 50000, ntave = 50000,
 ioutfm = 1, iwrap = 1, ntxo = 2,

 ! parameters for alchemical free energy simulation
 ntc = 2, ntf = 1,
 noshakemask = ':1,2',

 icfe = 1, ifsc = 0, clambda = 1.00, scalpha = 0.5, scbeta = 12.0,
 ifmbar = 1, mbar_lambda = 0.00 0.25 0.50 0.75 1.00,
 mbar_states = 5, bar_intervall = 1000,   ! ntpr = bar_intervall for alchemical

 timask1=':1', timask2=':2',
scmask1='',
scmask2='',
 crgmask = ':1@Cl18',
 /
 &ewald
 /

Note: ig = -1. Setting random seed to   920762 based on wallclock time in
      microseconds.

--------------------------------------------------------------------------------
   1.  RESOURCE   USE:
--------------------------------------------------------------------------------

 getting box info from netcdf restart file
 NATOM  =   46594 NTYPES =      28 NBONH =   43474 MBONA  =    3195
 NTHETH =    6825 MTHETA =    4355 NPHIH =   13976 MPHIA  =   13706
 NHPARM =       0 NPARM  =       0 NNB   =   87745 NRES   =   13889
 NBONA  =    3195 NTHETA =    4355 NPHIA =   13706 NUMBND =      89
 NUMANG =     195 NPTRA  =     203 NATYP =      50 NPHB   =       1
 IFBOX  =       1 NMXRS  =      43 IFCAP =       0 NEXTRA =       0
 NCOPY  =       0

     BOX TYPE: RECTILINEAR

--------------------------------------------------------------------------------
   2.  CONTROL  DATA  FOR  THE  RUN
--------------------------------------------------------------------------------

L1

General flags:
     imin    =       0, nmropt  =       0

Nature and format of input:
     ntx     =       5, irest   =       1, ntrx    =       1

Nature and format of output:
     ntxo    =       2, ntpr    =    1000, ntrx    =       1, ntwr    =   50000
     iwrap   =       1, ntwx    =   10000, ntwv    =       0, ntwe    =     100
     ioutfm  =       1, ntwprt  =       0, idecomp =       0, rbornstat=      0

Potential function:
     ntf     =       1, ntb     =       2, igb     =       0, nsnb    =      25
     ipol    =       0, gbsa    =       0, iesp    =       0
     dielc   =   1.00000, cut     =   8.00000, intdiel =   1.00000

Frozen or restrained atoms:
     ibelly  =       0, ntr     =       0

Molecular dynamics:
     nstlim  =    500000, nscm    =      1000, nrespa  =         1
     t       =   0.00000, dt      =   0.00200, vlimit  =  -1.00000

Langevin dynamics temperature regulation:
     ig      =  920762
     temp0   = 298.00000, tempi   =   0.00000, gamma_ln=   2.00000

Pressure regulation:
     ntp     =       1
     pres0   =   1.01325, comp    =  44.60000, taup    =   2.00000
     Monte-Carlo Barostat:
     mcbarint  =     100

SHAKE:
     ntc     =       2, jfastw  =       0
     tol     =   0.00001

Free energy options:
     icfe    =       1, ifsc    =       0, klambda =       1
     clambda =  1.0000, scalpha =  0.5000, scbeta  = 12.0000
     sceeorder =       2
     dynlmb =  0.0000 logdvdl =       0

FEP MBAR options:
     ifmbar  =       1,  bar_intervall =     1000
     mbar_states =       5

Ewald parameters:
     verbose =       0, ew_type =       0, nbflag  =       1, use_pme =       1
     vdwmeth =       1, eedmeth =       1, netfrc  =       1
     Box X =   87.894   Box Y =   67.207   Box Z =   78.608
     Alpha =   90.000   Beta  =   90.000   Gamma =   90.000
     NFFT1 =   96       NFFT2 =   64       NFFT3 =   80
     Cutoff=    8.000   Tol   =0.100E-04
     Ewald Coefficient =  0.34864
     Interpolation order =    4
     TI Mask 1 :1; matches     43 atoms
     TI Mask 2 :2; matches     43 atoms
     TI region 1:   46551 atoms
     TI region 2:   46551 atoms
Removing charge of      -0.0609 from atom      43
Total charge of  -0.06094600 removed from       1 atoms

    MBAR - lambda values considered:
       5 total:  0.0000 0.2500 0.5000 0.7500 1.0000
    Extra energies will be computed    500 times.
     Checking for mismatched coordinates.
 Noshake mask :1,2; matches      86 atoms.

--------------------------------------------------------------------------------
   3.  ATOMIC COORDINATES AND VELOCITIES
--------------------------------------------------------------------------------

L1
 begin time read from input coords =    20.000 ps

 Number of triangulated 3-point waters found:    13488
   Removing shake constraints from C23   L1    1 -- H41   L1    1
   Removing shake constraints from C23   L1    1 -- H42   L1    1
   Removing shake constraints from C22   L1    1 -- H39   L1    1
   Removing shake constraints from C22   L1    1 -- H40   L1    1
   Removing shake constraints from C21   L1    1 -- H38   L1    1
   Removing shake constraints from C20   L1    1 -- H37   L1    1
   Removing shake constraints from C13   L1    1 -- H34   L1    1
   Removing shake constraints from C16   L1    1 -- H35   L1    1
   Removing shake constraints from C19   L1    1 -- H36   L1    1
   Removing shake constraints from C10   L1    1 -- H33   L1    1
   Removing shake constraints from C9    L1    1 -- H32   L1    1
   Removing shake constraints from C8    L1    1 -- H31   L1    1
   Removing shake constraints from N5    L1    1 -- H30   L1    1
   Removing shake constraints from N4    L1    1 -- H43   L1    1
   Removing shake constraints from N4    L1    1 -- H29   L1    1
   Removing shake constraints from C1    L1    1 -- H26   L1    1
   Removing shake constraints from C1    L1    1 -- H27   L1    1
   Removing shake constraints from C1    L1    1 -- H28   L1    1
   Removing shake constraints from C23   L1    2 -- H41   L1    2
   Removing shake constraints from C23   L1    2 -- H42   L1    2
   Removing shake constraints from C22   L1    2 -- H39   L1    2
   Removing shake constraints from C22   L1    2 -- H40   L1    2
   Removing shake constraints from C21   L1    2 -- H38   L1    2
   Removing shake constraints from C20   L1    2 -- H37   L1    2
   Removing shake constraints from C13   L1    2 -- H34   L1    2
   Removing shake constraints from C16   L1    2 -- H35   L1    2
   Removing shake constraints from C19   L1    2 -- H36   L1    2
   Removing shake constraints from C10   L1    2 -- H33   L1    2
   Removing shake constraints from C9    L1    2 -- H32   L1    2
   Removing shake constraints from C8    L1    2 -- H31   L1    2
   Removing shake constraints from N5    L1    2 -- H30   L1    2
   Removing shake constraints from N4    L1    2 -- H43   L1    2
   Removing shake constraints from N4    L1    2 -- H29   L1    2
   Removing shake constraints from C1    L1    2 -- H26   L1    2
   Removing shake constraints from C1    L1    2 -- H27   L1    2
   Removing shake constraints from C1    L1    2 -- H28   L1    2
 Number of shake restraints removed:       36

     Sum of charges for TI region  1 =   0.06096676
     Assuming uniform neutralizing plasma

     Sum of charges for TI region  2 =   0.00002076
     Forcing neutrality...

--------------------------------------------------------------------------------
   4.  RESULTS
 NSTEP =     1000   TIME(PS) =      22.000  TEMP(K) =   282.79  PRESS =     0.0
 Etot   =   -116791.0359  EKtot   =     27039.4082  EPtot      =   -143830.4441
 BOND   =      1162.6496  ANGLE   =      3113.6220  DIHED      =      4866.6799
 1-4 NB =      1405.2883  1-4 EEL =     15903.4035  VDWAALS    =     17836.6893
 EELEC  =   -188118.7768  EHBOND  =         0.0000  RESTRAINT  =         0.0000
 EKCMT  =         0.0000  VIRIAL  =         0.0000  VOLUME     =    466094.7464
                                                    Density    =         1.0223
 DV/DL  =        -2.2216
 ------------------------------------------------------------------------------

      A V E R A G E S   O V E R   50000 S T E P S

 NSTEP =    50000   TIME(PS) =     120.000  TEMP(K) =   296.67  PRESS =     0.0
 Etot   =   -111608.8339  EKtot   =     28366.9518  EPtot      =   -139975.7858
 BOND   =      1186.1005  ANGLE   =      3064.3761  DIHED      =      4891.5812
 1-4 NB =      1411.0490  1-4 EEL =     15989.1168  VDWAALS    =     15724.9338
 EELEC  =   -182242.9432  EHBOND  =         0.0000  RESTRAINT  =         0.0000
 EKCMT  =         0.0000  VIRIAL  =         0.0000  VOLUME     =    462824.1058
                                                    Density    =         1.0296
 DV/DL  =        -1.9779
 ------------------------------------------------------------------------------

      R M S  F L U C T U A T I O N S

 NSTEP =    50000   TIME(PS) =     120.000  TEMP(K) =    10.29  PRESS =     0.0
 Etot   =      3077.7848  EKtot   =       983.4697  EPtot      =      2114.7782
 BOND   =        48.2463  ANGLE   =        97.6571  DIHED      =        32.9863
 1-4 NB =        16.2679  1-4 EEL =        42.0880  VDWAALS    =       899.7234
 EELEC  =      2852.7370  EHBOND  =         0.0000  RESTRAINT  =         0.0000
 EKCMT  =         0.0000  VIRIAL  =         0.0000  VOLUME     =      1255.3975
                                                    Density    =         0.0028
 DV/DL  =         0.5060
 ------------------------------------------------------------------------------

      A V E R A G E S   O V E R   50000 S T E P S

 NSTEP =    50000   TIME(PS) =     120.000  TEMP(K) =   296.67  PRESS =     0.0
 Etot   =   -111608.8339  EKtot   =     28366.9518  EPtot      =   -139975.7858
 BOND   =      1186.1005  ANGLE   =      3064.3761  DIHED      =      4891.5812
 1-4 NB =      1411.0490  1-4 EEL =     15989.1168  VDWAALS    =     15724.9338
 EELEC  =   -182242.9432  EHBOND  =         0.0000  RESTRAINT  =         0.0000
 EKCMT  =         0.0000  VIRIAL  =         0.0000  VOLUME     =    462824.1058
                                                    Density    =         1.0296
 DV/DL  =        -1.9779
 ------------------------------------------------------------------------------

      R M S  F L U C T U A T I O N S

 NSTEP =    50000   TIME(PS) =     120.000  TEMP(K) =    10.29  PRESS =     0.0
 Etot   =      3077.7848  EKtot   =       983.4697  EPtot      =      2114.7782
 BOND   =        48.2463  ANGLE   =        97.6571  DIHED      =        32.9863
 1-4 NB =        16.2679  1-4 EEL =        42.0880  VDWAALS    =       899.7234
 EELEC  =      2852.7370  EHBOND  =         0.0000  RESTRAINT  =         0.0000
 EKCMT  =         0.0000  VIRIAL  =         0.0000  VOLUME     =      1255.3975
                                                    Density    =         0.0028
 DV/DL  =         0.5060
 ------------------------------------------------------------------------------

      DV/DL, AVERAGES OVER   50000 STEPS

 NSTEP =    50000   TIME(PS) =     120.000  TEMP(K) =    10.29  PRESS =     0.0
 Etot   =         0.0000  EKtot   =         0.0000  EPtot      =        -1.9582
 BOND   =         0.0000  ANGLE   =         0.0000  DIHED      =         0.0000
 1-4 NB =         0.0000  1-4 EEL =         0.0000  VDWAALS    =         0.0000
 EELEC  =        -0.2426  EHBOND  =         0.0000  RESTRAINT  =         0.0000
 EKCMT  =         0.0000  VIRIAL  =         0.0000  VOLUME     =         0.0000
                                                    Density    =         0.0000
 DV/DL  =        -1.9582
 ------------------------------------------------------------------------------

      A V E R A G E S   O V E R   50000 S T E P S

 NSTEP =   100000   TIME(PS) =     220.000  TEMP(K) =   298.04  PRESS =     0.0
 Etot   =   -111164.5858  EKtot   =     28497.3964  EPtot      =   -139661.9822
 BOND   =      1188.5972  ANGLE   =      3065.0498  DIHED      =      4895.0815
 1-4 NB =      1412.9221  1-4 EEL =     15995.4433  VDWAALS    =     15598.3247
 EELEC  =   -181817.4007  EHBOND  =         0.0000  RESTRAINT  =         0.0000
 EKCMT  =         0.0000  VIRIAL  =         0.0000  VOLUME     =    462509.8826
                                                    Density    =         1.0303
 DV/DL  =        -2.0287
 ------------------------------------------------------------------------------

      R M S  F L U C T U A T I O N S

 NSTEP =   100000   TIME(PS) =     220.000  TEMP(K) =     1.33  PRESS =     0.0
 Etot   =       224.7631  EKtot   =       126.8782  EPtot      =       186.7266
 BOND   =        28.8771  ANGLE   =        42.5200  DIHED      =        23.8056
 1-4 NB =        15.1891  1-4 EEL =        42.0372  VDWAALS    =       182.2831
 EELEC  =       299.9442  EHBOND  =         0.0000  RESTRAINT  =         0.0000
 EKCMT  =         0.0000  VIRIAL  =         0.0000  VOLUME     =       919.0480
                                                    Density    =         0.0020
 DV/DL  =         0.5040
 ------------------------------------------------------------------------------

      A V E R A G E S   O V E R   50000 S T E P S

 NSTEP =   100000   TIME(PS) =     220.000  TEMP(K) =   298.04  PRESS =     0.0
 Etot   =   -111164.5858  EKtot   =     28497.3964  EPtot      =   -139661.9822
 BOND   =      1188.5972  ANGLE   =      3065.0498  DIHED      =      4895.0815
 1-4 NB =      1412.9221  1-4 EEL =     15995.4433  VDWAALS    =     15598.3247
 EELEC  =   -181817.4007  EHBOND  =         0.0000  RESTRAINT  =         0.0000
 EKCMT  =         0.0000  VIRIAL  =         0.0000  VOLUME     =    462509.8826
                                                    Density    =         1.0303
 DV/DL  =        -2.0287
 ------------------------------------------------------------------------------

      R M S  F L U C T U A T I O N S

 NSTEP =   100000   TIME(PS) =     220.000  TEMP(K) =     1.33  PRESS =     0.0
 Etot   =       224.7631  EKtot   =       126.8782  EPtot      =       186.7266
 BOND   =        28.8771  ANGLE   =        42.5200  DIHED      =        23.8056
 1-4 NB =        15.1891  1-4 EEL =        42.0372  VDWAALS    =       182.2831
 EELEC  =       299.9442  EHBOND  =         0.0000  RESTRAINT  =         0.0000
 EKCMT  =         0.0000  VIRIAL  =         0.0000  VOLUME     =       919.0480
                                                    Density    =         0.0020
 DV/DL  =         0.5040
 ------------------------------------------------------------------------------

      DV/DL, AVERAGES OVER   50000 STEPS

 NSTEP =   100000   TIME(PS) =     220.000  TEMP(K) =     1.33  PRESS =     0.0
 Etot   =         0.0000  EKtot   =         0.0000  EPtot      =        -2.0085
 BOND   =         0.0000  ANGLE   =         0.0000  DIHED      =         0.0000
 1-4 NB =         0.0000  1-4 EEL =         0.0000  VDWAALS    =         0.0000
 EELEC  =        -0.2426  EHBOND  =         0.0000  RESTRAINT  =         0.0000
 EKCMT  =         0.0000  VIRIAL  =         0.0000  VOLUME     =         0.0000
                                                    Density    =         0.0000
 DV/DL  =        -2.0085
 ------------------------------------------------------------------------------

      A V E R A G E S   O V E R   50000 S T E P S

 NSTEP =   500000   TIME(PS) =    1020.000  TEMP(K) =   298.01  PRESS =     0.0
 Etot   =   -111194.5818  EKtot   =     28494.6046  EPtot      =   -139689.1864
 BOND   =      1188.4973  ANGLE   =      3068.5601  DIHED      =      4902.0226
 1-4 NB =      1409.4930  1-4 EEL =     16044.6575  VDWAALS    =     15618.5547
 EELEC  =   -181920.9717  EHBOND  =         0.0000  RESTRAINT  =         0.0000
 EKCMT  =         0.0000  VIRIAL  =         0.0000  VOLUME     =    462615.3589
                                                    Density    =         1.0300
 DV/DL  =        -2.0291
 ------------------------------------------------------------------------------

      R M S  F L U C T U A T I O N S

 NSTEP =   500000   TIME(PS) =    1020.000  TEMP(K) =     1.31  PRESS =     0.0
 Etot   =       216.2954  EKtot   =       125.1780  EPtot      =       183.0526
 BOND   =        29.2618  ANGLE   =        42.4219  DIHED      =        23.5223
 1-4 NB =        15.2598  1-4 EEL =        42.8436  VDWAALS    =       190.0230
 EELEC  =       295.7223  EHBOND  =         0.0000  RESTRAINT  =         0.0000
 EKCMT  =         0.0000  VIRIAL  =         0.0000  VOLUME     =      1104.2564
                                                    Density    =         0.0025
 DV/DL  =         0.4911
 ------------------------------------------------------------------------------

      A V E R A G E S   O V E R   50000 S T E P S

 NSTEP =   500000   TIME(PS) =    1020.000  TEMP(K) =   298.01  PRESS =     0.0
 Etot   =   -111194.5818  EKtot   =     28494.6046  EPtot      =   -139689.1864
 BOND   =      1188.4973  ANGLE   =      3068.5601  DIHED      =      4902.0226
 1-4 NB =      1409.4930  1-4 EEL =     16044.6575  VDWAALS    =     15618.5547
 EELEC  =   -181920.9717  EHBOND  =         0.0000  RESTRAINT  =         0.0000
 EKCMT  =         0.0000  VIRIAL  =         0.0000  VOLUME     =    462615.3589
                                                    Density    =         1.0300
 DV/DL  =        -2.0291
 ------------------------------------------------------------------------------

      R M S  F L U C T U A T I O N S

 NSTEP =   500000   TIME(PS) =    1020.000  TEMP(K) =     1.31  PRESS =     0.0
 Etot   =       216.2954  EKtot   =       125.1779  EPtot      =       183.0526
 BOND   =        29.2618  ANGLE   =        42.4219  DIHED      =        23.5223
 1-4 NB =        15.2598  1-4 EEL =        42.8436  VDWAALS    =       190.0230
 EELEC  =       295.7223  EHBOND  =         0.0000  RESTRAINT  =         0.0000
 EKCMT  =         0.0000  VIRIAL  =         0.0000  VOLUME     =      1104.2564
                                                    Density    =         0.0025
 DV/DL  =         0.4911
 ------------------------------------------------------------------------------

      DV/DL, AVERAGES OVER   50000 STEPS

 NSTEP =   500000   TIME(PS) =    1020.000  TEMP(K) =     1.31  PRESS =     0.0
 Etot   =         0.0000  EKtot   =         0.0000  EPtot      =        -2.0086
 BOND   =         0.0000  ANGLE   =         0.0000  DIHED      =         0.0000
 1-4 NB =         0.0000  1-4 EEL =         0.0000  VDWAALS    =         0.0000
 EELEC  =        -0.2426  EHBOND  =         0.0000  RESTRAINT  =         0.0000
 EKCMT  =         0.0000  VIRIAL  =         0.0000  VOLUME     =         0.0000
                                                    Density    =         0.0000
 DV/DL  =        -2.0086
 ------------------------------------------------------------------------------

      A V E R A G E S   O V E R  500000 S T E P S

 NSTEP =   500000   TIME(PS) =    1020.000  TEMP(K) =   297.83  PRESS =     0.0
 Etot   =   -111246.1090  EKtot   =     28477.9869  EPtot      =   -139724.0959
 BOND   =      1189.2626  ANGLE   =      3067.1372  DIHED      =      4893.9247
 1-4 NB =      1411.3292  1-4 EEL =     16021.1218  VDWAALS    =     15621.0208
 EELEC  =   -181927.8922  EHBOND  =         0.0000  RESTRAINT  =         0.0000
 EKCMT  =         0.0000  VIRIAL  =         0.0000  VOLUME     =    462694.2915
                                                    Density    =         1.0299
 DV/DL  =        -2.0087
 ------------------------------------------------------------------------------

      R M S  F L U C T U A T I O N S

 NSTEP =   500000   TIME(PS) =    1020.000  TEMP(K) =     3.51  PRESS =     0.0
 Etot   =      1002.6775  EKtot   =       335.9688  EPtot      =       695.8295
 BOND   =        31.5628  ANGLE   =        50.7678  DIHED      =        25.2528
 1-4 NB =        15.4487  1-4 EEL =        46.6968  VDWAALS    =       335.8594
 EELEC  =       949.2603  EHBOND  =         0.0000  RESTRAINT  =         0.0000
 EKCMT  =         0.0000  VIRIAL  =         0.0000  VOLUME     =      1016.9407
                                                    Density    =         0.0023
 DV/DL  =         0.5086
 ------------------------------------------------------------------------------

      A V E R A G E S   O V E R  500000 S T E P S

 NSTEP =   500000   TIME(PS) =    1020.000  TEMP(K) =   297.83  PRESS =     0.0
 Etot   =   -111246.1090  EKtot   =     28477.9869  EPtot      =   -139724.0959
 BOND   =      1189.2626  ANGLE   =      3067.1372  DIHED      =      4893.9247
 1-4 NB =      1411.3292  1-4 EEL =     16021.1218  VDWAALS    =     15621.0208
 EELEC  =   -181927.8922  EHBOND  =         0.0000  RESTRAINT  =         0.0000
 EKCMT  =         0.0000  VIRIAL  =         0.0000  VOLUME     =    462694.2915
                                                    Density    =         1.0299
 DV/DL  =        -2.0087
 ------------------------------------------------------------------------------

      R M S  F L U C T U A T I O N S

 NSTEP =   500000   TIME(PS) =    1020.000  TEMP(K) =     3.51  PRESS =     0.0
 Etot   =      1002.6775  EKtot   =       335.9688  EPtot      =       695.8295
 BOND   =        31.5628  ANGLE   =        50.7678  DIHED      =        25.2528
 1-4 NB =        15.4487  1-4 EEL =        46.6968  VDWAALS    =       335.8594
 EELEC  =       949.2603  EHBOND  =         0.0000  RESTRAINT  =         0.0000
 EKCMT  =         0.0000  VIRIAL  =         0.0000  VOLUME     =      1016.9407
                                                    Density    =         0.0023
 DV/DL  =         0.5086
 ------------------------------------------------------------------------------

      DV/DL, AVERAGES OVER  500000 STEPS

 NSTEP =   500000   TIME(PS) =    1020.000  TEMP(K) =     3.51  PRESS =     0.0
 Etot   =         0.0000  EKtot   =         0.0000  EPtot      =        -1.9886
 BOND   =         0.0000  ANGLE   =         0.0000  DIHED      =         0.0000
 1-4 NB =         0.0000  1-4 EEL =         0.0000  VDWAALS    =         0.0000
 EELEC  =        -0.2426  EHBOND  =         0.0000  RESTRAINT  =         0.0000
 EKCMT  =         0.0000  VIRIAL  =         0.0000  VOLUME     =         0.0000
                                                    Density    =         0.0000
 DV/DL  =        -1.9886
 ------------------------------------------------------------------------------
