-------------------------------------------------------
          Amber 16 PMEMD                              2016
          -------------------------------------------------------

  [-O]verwriting output

File Assignments:

 Here is the input file:

TI/FEP, NpT, vdW+bonded transformation
 &cntrl
 ! please adjust namelist parameters to your needs!

 ! parameters for general MD
 imin = 0, nstlim = 500000, irest = 1, ntx = 5, dt = 0.002,
 ntt = 3, temp0 = 298.0, gamma_ln = 2.0, ig = -1,
 ntb = 2,
 ntp = 1, barostat = 2, pres0 = 1.01325, taup = 2.0,
 ntwe = 100, ntwx = 10000, ntpr = 1000, ntwr = 50000, ntave = 50000,
 ioutfm = 1, iwrap = 1, ntxo = 2,

 ! parameters for alchemical free energy simulation
 ntc = 2, ntf = 1,
 noshakemask = ':1,2',

 icfe = 1, ifsc = 1, clambda = 0.0479, scalpha = 0.5, scbeta = 12.0,
 ifmbar = 1, mbar_lambda = 0.0 0.0479 0.1150 0.2063 0.3160 0.4373 0.5626 0.6839
 mbar_states = 12, bar_intervall = 1000,   ! ntpr = bar_intervall for alchemica

 timask1=':1', timask2=':2',
scmask1=':1@H34',
scmask2=':2@Cl18',
 crgmask = ':1@H34 | :2@Cl18',
 /
 &ewald
 /

Note: ig = -1. Setting random seed to   156801 based on wallclock time in
      microseconds.

--------------------------------------------------------------------------------
   1.  RESOURCE   USE:
--------------------------------------------------------------------------------

 getting box info from netcdf restart file
 NATOM  =    4115 NTYPES =      13 NBONH =    4066 MBONA  =      55
 NTHETH =      78 MTHETA =      84 NPHIH =     153 MPHIA  =     133
 NHPARM =       0 NPARM  =       0 NNB   =    5842 NRES   =    1345
 NBONA  =      55 NTHETA =      84 NPHIA =     133 NUMBND =      22
 NUMANG =      35 NPTRA  =      14 NATYP =      17 NPHB   =       1
 IFBOX  =       1 NMXRS  =      43 IFCAP =       0 NEXTRA =       0
 NCOPY  =       0

     BOX TYPE: RECTILINEAR

--------------------------------------------------------------------------------
   2.  CONTROL  DATA  FOR  THE  RUN
--------------------------------------------------------------------------------

L0

General flags:
     imin    =       0, nmropt  =       0

Nature and format of input:
     ntx     =       5, irest   =       1, ntrx    =       1

Nature and format of output:
     ntxo    =       2, ntpr    =    1000, ntrx    =       1, ntwr    =   50000
     iwrap   =       1, ntwx    =   10000, ntwv    =       0, ntwe    =     100
     ioutfm  =       1, ntwprt  =       0, idecomp =       0, rbornstat=      0

Potential function:
     ntf     =       1, ntb     =       2, igb     =       0, nsnb    =      25
     ipol    =       0, gbsa    =       0, iesp    =       0
     dielc   =   1.00000, cut     =   8.00000, intdiel =   1.00000

Frozen or restrained atoms:
     ibelly  =       0, ntr     =       0

Molecular dynamics:
     nstlim  =    500000, nscm    =      1000, nrespa  =         1
     t       =   0.00000, dt      =   0.00200, vlimit  =  -1.00000

Langevin dynamics temperature regulation:
     ig      =  156801
     temp0   = 298.00000, tempi   =   0.00000, gamma_ln=   2.00000

Pressure regulation:
     ntp     =       1
     pres0   =   1.01325, comp    =  44.60000, taup    =   2.00000
     Monte-Carlo Barostat:
     mcbarint  =     100

SHAKE:
     ntc     =       2, jfastw  =       0
     tol     =   0.00001

Free energy options:
     icfe    =       1, ifsc    =       1, klambda =       1
     clambda =  0.0479, scalpha =  0.5000, scbeta  = 12.0000
     sceeorder =       2
     dynlmb =  0.0000 logdvdl =       0

FEP MBAR options:
     ifmbar  =       1,  bar_intervall =     1000
     mbar_states =      12

Ewald parameters:
     verbose =       0, ew_type =       0, nbflag  =       1, use_pme =       1
     vdwmeth =       1, eedmeth =       1, netfrc  =       1
     Box X =   32.703   Box Y =   37.439   Box Z =   33.758
     Alpha =   90.000   Beta  =   90.000   Gamma =   90.000
     NFFT1 =   36       NFFT2 =   40       NFFT3 =   36
     Cutoff=    8.000   Tol   =0.100E-04
     Ewald Coefficient =  0.34864
     Interpolation order =    4
     TI Mask 1 :1; matches     43 atoms
     TI Mask 2 :2; matches     43 atoms
     TI region 1:    4072 atoms
     TI region 2:    4072 atoms
     SC Mask 1 :1@H34; matches      1 atoms
     SC Mask 2 :2@Cl18; matches      1 atoms
Removing charge of       0.1510 from atom      43
Removing charge of      -0.0609 from atom      86
Total charge of   0.09010100 removed from       2 atoms

    MBAR - lambda values considered:
      12 total:  0.0000 0.0479 0.1150 0.2063 0.3160 0.4373 0.5626 0.6839 0.7936 0.8849 0.9520 1.0000
    Extra energies will be computed    500 times.
 Noshake mask :1,2; matches      86 atoms.

--------------------------------------------------------------------------------
   3.  ATOMIC COORDINATES AND VELOCITIES
--------------------------------------------------------------------------------

L0
 begin time read from input coords =    20.000 ps

     Molecule     1 is partially softcore
     Molecule     2 is partially softcore
 Number of triangulated 3-point waters found:     1343
   Removing shake constraints from C22   L0    1 -- H41   L0    1
   Removing shake constraints from C22   L0    1 -- H42   L0    1
   Removing shake constraints from C21   L0    1 -- H39   L0    1
   Removing shake constraints from C21   L0    1 -- H40   L0    1
   Removing shake constraints from C20   L0    1 -- H38   L0    1
   Removing shake constraints from C19   L0    1 -- H37   L0    1
   Removing shake constraints from C18   L0    1 -- H36   L0    1
   Removing shake constraints from C15   L0    1 -- H35   L0    1
   Removing shake constraints from C14   L0    1 -- H34   L0    1
   Removing shake constraints from C13   L0    1 -- H33   L0    1
   Removing shake constraints from C10   L0    1 -- H32   L0    1
   Removing shake constraints from C9    L0    1 -- H31   L0    1
   Removing shake constraints from C8    L0    1 -- H30   L0    1
   Removing shake constraints from N5    L0    1 -- H29   L0    1
   Removing shake constraints from N4    L0    1 -- H43   L0    1
   Removing shake constraints from N4    L0    1 -- H28   L0    1
   Removing shake constraints from C1    L0    1 -- H25   L0    1
   Removing shake constraints from C1    L0    1 -- H26   L0    1
   Removing shake constraints from C1    L0    1 -- H27   L0    1
   Removing shake constraints from C23   L1    2 -- H41   L1    2
   Removing shake constraints from C23   L1    2 -- H42   L1    2
   Removing shake constraints from C22   L1    2 -- H39   L1    2
   Removing shake constraints from C22   L1    2 -- H40   L1    2
   Removing shake constraints from C21   L1    2 -- H38   L1    2
   Removing shake constraints from C20   L1    2 -- H37   L1    2
   Removing shake constraints from C13   L1    2 -- H34   L1    2
   Removing shake constraints from C16   L1    2 -- H35   L1    2
   Removing shake constraints from C19   L1    2 -- H36   L1    2
   Removing shake constraints from C10   L1    2 -- H33   L1    2
   Removing shake constraints from C9    L1    2 -- H32   L1    2
   Removing shake constraints from C8    L1    2 -- H31   L1    2
   Removing shake constraints from N5    L1    2 -- H30   L1    2
   Removing shake constraints from N4    L1    2 -- H43   L1    2
   Removing shake constraints from N4    L1    2 -- H29   L1    2
   Removing shake constraints from C1    L1    2 -- H26   L1    2
   Removing shake constraints from C1    L1    2 -- H27   L1    2
   Removing shake constraints from C1    L1    2 -- H28   L1    2
 WARNING: SHAKEn bond for atoms       14       43 is partially softcore.
 Coordinates for common atoms will be synchronized from V0.
 Consider using noshake mask or disabling SHAKE.

 Number of shake restraints removed in TI region  1 :       19
 Number of shake restraints removed in TI region  2 :       18

     Sum of charges for TI region  1 =   0.84897300
     Assuming uniform neutralizing plasma

     Sum of charges for TI region  2 =   1.06096699
     Assuming uniform neutralizing plasma

--------------------------------------------------------------------------------
   4.  RESULTS
 NSTEP =     1000   TIME(PS) =      22.000  TEMP(K) =   288.87  PRESS =     0.0
 Etot   =    -10861.5414  EKtot   =      2344.7056  EPtot      =    -13206.2470
 BOND   =        17.7478  ANGLE   =        30.2681  DIHED      =        19.2013
 1-4 NB =         8.0378  1-4 EEL =       -68.4526  VDWAALS    =      2080.8566
 EELEC  =    -15293.9060  EHBOND  =         0.0000  RESTRAINT  =         0.0000
 EKCMT  =         0.0000  VIRIAL  =         0.0000  VOLUME     =     41370.4436
                                                    Density    =         0.9849
 DV/DL  =         4.8770
 ------------------------------------------------------------------------------

      A V E R A G E S   O V E R   50000 S T E P S

 NSTEP =    50000   TIME(PS) =     120.000  TEMP(K) =   297.66  PRESS =     0.0
 Etot   =    -10448.2270  EKtot   =      2416.0216  EPtot      =    -12864.2485
 BOND   =        18.1221  ANGLE   =        32.0144  DIHED      =        18.4519
 1-4 NB =         7.8696  1-4 EEL =       -67.0710  VDWAALS    =      1909.6774
 EELEC  =    -14783.3131  EHBOND  =         0.0000  RESTRAINT  =         0.0000
 EKCMT  =         0.0000  VIRIAL  =         0.0000  VOLUME     =     41219.4120
                                                    Density    =         0.9885
 DV/DL  =         2.7406
 ------------------------------------------------------------------------------

      R M S  F L U C T U A T I O N S

 NSTEP =    50000   TIME(PS) =     120.000  TEMP(K) =    10.89  PRESS =     0.0
 Etot   =       282.5594  EKtot   =        88.3596  EPtot      =       203.2608
 BOND   =         3.8529  ANGLE   =         3.2644  DIHED      =         2.7369
 1-4 NB =         0.8624  1-4 EEL =         2.2191  VDWAALS    =       101.6168
 EELEC  =       291.9426  EHBOND  =         0.0000  RESTRAINT  =         0.0000
 EKCMT  =         0.0000  VIRIAL  =         0.0000  VOLUME     =       344.1407
                                                    Density    =         0.0082
 DV/DL  =         2.1049
 ------------------------------------------------------------------------------

      A V E R A G E S   O V E R   50000 S T E P S

 NSTEP =    50000   TIME(PS) =     120.000  TEMP(K) =   297.66  PRESS =     0.0
 Etot   =    -10448.2455  EKtot   =      2416.0030  EPtot      =    -12864.2485
 BOND   =        18.1221  ANGLE   =        32.0144  DIHED      =        18.4519
 1-4 NB =         7.8696  1-4 EEL =       -67.0710  VDWAALS    =      1909.6774
 EELEC  =    -14783.3131  EHBOND  =         0.0000  RESTRAINT  =         0.0000
 EKCMT  =         0.0000  VIRIAL  =         0.0000  VOLUME     =     41219.4120
                                                    Density    =         0.9899
 DV/DL  =         2.7406
 ------------------------------------------------------------------------------

      R M S  F L U C T U A T I O N S

 NSTEP =    50000   TIME(PS) =     120.000  TEMP(K) =    10.89  PRESS =     0.0
 Etot   =       282.5704  EKtot   =        88.3712  EPtot      =       203.2608
 BOND   =         3.8529  ANGLE   =         3.2644  DIHED      =         2.7369
 1-4 NB =         0.8624  1-4 EEL =         2.2191  VDWAALS    =       101.6168
 EELEC  =       291.9426  EHBOND  =         0.0000  RESTRAINT  =         0.0000
 EKCMT  =         0.0000  VIRIAL  =         0.0000  VOLUME     =       344.1407
                                                    Density    =         0.0082
 DV/DL  =         2.1049
 ------------------------------------------------------------------------------

      DV/DL, AVERAGES OVER   50000 STEPS

 NSTEP =    50000   TIME(PS) =     120.000  TEMP(K) =    10.89  PRESS =     0.0
 Etot   =         0.0000  EKtot   =         0.0000  EPtot      =         2.7130
 BOND   =         0.0000  ANGLE   =         0.0000  DIHED      =         0.0000
 1-4 NB =         0.0000  1-4 EEL =         0.0000  VDWAALS    =        -0.2546
 EELEC  =        -0.2356  EHBOND  =         0.0000  RESTRAINT  =         0.0000
 EKCMT  =         0.0000  VIRIAL  =         0.0000  VOLUME     =         0.0000
                                                    Density    =         0.0000
 DV/DL  =         2.7130
 ------------------------------------------------------------------------------

      A V E R A G E S   O V E R   50000 S T E P S

 NSTEP =   100000   TIME(PS) =     220.000  TEMP(K) =   298.62  PRESS =     0.0
 Etot   =    -10424.4385  EKtot   =      2423.7786  EPtot      =    -12848.2171
 BOND   =        17.6865  ANGLE   =        32.2516  DIHED      =        18.8042
 1-4 NB =         7.8715  1-4 EEL =       -69.7502  VDWAALS    =      1901.3457
 EELEC  =    -14756.4264  EHBOND  =         0.0000  RESTRAINT  =         0.0000
 EKCMT  =         0.0000  VIRIAL  =         0.0000  VOLUME     =     41208.6005
                                                    Density    =         0.9888
 DV/DL  =         2.7903
 ------------------------------------------------------------------------------

      R M S  F L U C T U A T I O N S

 NSTEP =   100000   TIME(PS) =     220.000  TEMP(K) =     4.64  PRESS =     0.0
 Etot   =        65.6800  EKtot   =        37.6655  EPtot      =        55.3230
 BOND   =         3.7141  ANGLE   =         3.3124  DIHED      =         2.7380
 1-4 NB =         0.8767  1-4 EEL =         2.4715  VDWAALS    =        58.1179
 EELEC  =        91.8233  EHBOND  =         0.0000  RESTRAINT  =         0.0000
 EKCMT  =         0.0000  VIRIAL  =         0.0000  VOLUME     =       322.7610
                                                    Density    =         0.0078
 DV/DL  =         2.1961
 ------------------------------------------------------------------------------

      A V E R A G E S   O V E R   50000 S T E P S

 NSTEP =   100000   TIME(PS) =     220.000  TEMP(K) =   298.61  PRESS =     0.0
 Etot   =    -10424.4574  EKtot   =      2423.7596  EPtot      =    -12848.2171
 BOND   =        17.6865  ANGLE   =        32.2516  DIHED      =        18.8042
 1-4 NB =         7.8715  1-4 EEL =       -69.7502  VDWAALS    =      1901.3457
 EELEC  =    -14756.4264  EHBOND  =         0.0000  RESTRAINT  =         0.0000
 EKCMT  =         0.0000  VIRIAL  =         0.0000  VOLUME     =     41208.6005
                                                    Density    =         0.9902
 DV/DL  =         2.7903
 ------------------------------------------------------------------------------

      R M S  F L U C T U A T I O N S

 NSTEP =   100000   TIME(PS) =     220.000  TEMP(K) =     4.64  PRESS =     0.0
 Etot   =        65.6549  EKtot   =        37.6592  EPtot      =        55.3230
 BOND   =         3.7141  ANGLE   =         3.3124  DIHED      =         2.7380
 1-4 NB =         0.8767  1-4 EEL =         2.4715  VDWAALS    =        58.1179
 EELEC  =        91.8233  EHBOND  =         0.0000  RESTRAINT  =         0.0000
 EKCMT  =         0.0000  VIRIAL  =         0.0000  VOLUME     =       322.7610
                                                    Density    =         0.0078
 DV/DL  =         2.1961
 ------------------------------------------------------------------------------

      DV/DL, AVERAGES OVER   50000 STEPS

 NSTEP =   100000   TIME(PS) =     220.000  TEMP(K) =     4.64  PRESS =     0.0
 Etot   =         0.0000  EKtot   =         0.0000  EPtot      =         2.7623
 BOND   =         0.0000  ANGLE   =         0.0000  DIHED      =         0.0000
 1-4 NB =         0.0000  1-4 EEL =         0.0000  VDWAALS    =        -0.2547
 EELEC  =        -0.2356  EHBOND  =         0.0000  RESTRAINT  =         0.0000
 EKCMT  =         0.0000  VIRIAL  =         0.0000  VOLUME     =         0.0000
                                                    Density    =         0.0000
 DV/DL  =         2.7623
 ------------------------------------------------------------------------------

      A V E R A G E S   O V E R   50000 S T E P S

 NSTEP =   500000   TIME(PS) =    1020.000  TEMP(K) =   298.83  PRESS =     0.0
 Etot   =    -10417.0830  EKtot   =      2425.5081  EPtot      =    -12842.5911
 BOND   =        18.1581  ANGLE   =        32.0812  DIHED      =        18.2971
 1-4 NB =         7.9561  1-4 EEL =       -66.6009  VDWAALS    =      1902.4760
 EELEC  =    -14754.9587  EHBOND  =         0.0000  RESTRAINT  =         0.0000
 EKCMT  =         0.0000  VIRIAL  =         0.0000  VOLUME     =     41193.0334
                                                    Density    =         0.9892
 DV/DL  =         2.7354
 ------------------------------------------------------------------------------

      R M S  F L U C T U A T I O N S

 NSTEP =   500000   TIME(PS) =    1020.000  TEMP(K) =     4.66  PRESS =     0.0
 Etot   =        63.6034  EKtot   =        37.8030  EPtot      =        53.6503
 BOND   =         3.7334  ANGLE   =         3.2146  DIHED      =         2.6112
 1-4 NB =         0.8869  1-4 EEL =         2.0664  VDWAALS    =        58.2103
 EELEC  =        90.5199  EHBOND  =         0.0000  RESTRAINT  =         0.0000
 EKCMT  =         0.0000  VIRIAL  =         0.0000  VOLUME     =       306.4146
                                                    Density    =         0.0074
 DV/DL  =         2.0051
 ------------------------------------------------------------------------------

      A V E R A G E S   O V E R   50000 S T E P S

 NSTEP =   500000   TIME(PS) =    1020.000  TEMP(K) =   298.83  PRESS =     0.0
 Etot   =    -10417.1111  EKtot   =      2425.4800  EPtot      =    -12842.5911
 BOND   =        18.1581  ANGLE   =        32.0812  DIHED      =        18.2971
 1-4 NB =         7.9561  1-4 EEL =       -66.6009  VDWAALS    =      1902.4760
 EELEC  =    -14754.9587  EHBOND  =         0.0000  RESTRAINT  =         0.0000
 EKCMT  =         0.0000  VIRIAL  =         0.0000  VOLUME     =     41193.0334
                                                    Density    =         0.9905
 DV/DL  =         2.7354
 ------------------------------------------------------------------------------

      R M S  F L U C T U A T I O N S

 NSTEP =   500000   TIME(PS) =    1020.000  TEMP(K) =     4.65  PRESS =     0.0
 Etot   =        63.5644  EKtot   =        37.7606  EPtot      =        53.6503
 BOND   =         3.7334  ANGLE   =         3.2146  DIHED      =         2.6112
 1-4 NB =         0.8869  1-4 EEL =         2.0664  VDWAALS    =        58.2103
 EELEC  =        90.5199  EHBOND  =         0.0000  RESTRAINT  =         0.0000
 EKCMT  =         0.0000  VIRIAL  =         0.0000  VOLUME     =       306.4146
                                                    Density    =         0.0074
 DV/DL  =         2.0051
 ------------------------------------------------------------------------------

      DV/DL, AVERAGES OVER   50000 STEPS

 NSTEP =   500000   TIME(PS) =    1020.000  TEMP(K) =     4.65  PRESS =     0.0
 Etot   =         0.0000  EKtot   =         0.0000  EPtot      =         2.7089
 BOND   =         0.0000  ANGLE   =         0.0000  DIHED      =         0.0000
 1-4 NB =         0.0000  1-4 EEL =         0.0000  VDWAALS    =        -0.2548
 EELEC  =        -0.2356  EHBOND  =         0.0000  RESTRAINT  =         0.0000
 EKCMT  =         0.0000  VIRIAL  =         0.0000  VOLUME     =         0.0000
                                                    Density    =         0.0000
 DV/DL  =         2.7089
 ------------------------------------------------------------------------------

      A V E R A G E S   O V E R  500000 S T E P S

 NSTEP =   500000   TIME(PS) =    1020.000  TEMP(K) =   298.60  PRESS =     0.0
 Etot   =    -10421.2208  EKtot   =      2423.6331  EPtot      =    -12844.8539
 BOND   =        17.8852  ANGLE   =        32.0451  DIHED      =        18.5294
 1-4 NB =         7.8999  1-4 EEL =       -68.0775  VDWAALS    =      1900.6344
 EELEC  =    -14753.7703  EHBOND  =         0.0000  RESTRAINT  =         0.0000
 EKCMT  =         0.0000  VIRIAL  =         0.0000  VOLUME     =     41237.7476
                                                    Density    =         0.9881
 DV/DL  =         2.8079
 ------------------------------------------------------------------------------

      R M S  F L U C T U A T I O N S

 NSTEP =   500000   TIME(PS) =    1020.000  TEMP(K) =     5.63  PRESS =     0.0
 Etot   =       110.0777  EKtot   =        45.7023  EPtot      =        83.4136
 BOND   =         3.7544  ANGLE   =         3.2415  DIHED      =         2.6979
 1-4 NB =         0.8776  1-4 EEL =         2.7429  VDWAALS    =        63.0767
 EELEC  =       126.1124  EHBOND  =         0.0000  RESTRAINT  =         0.0000
 EKCMT  =         0.0000  VIRIAL  =         0.0000  VOLUME     =       299.0417
                                                    Density    =         0.0072
 DV/DL  =         2.0523
 ------------------------------------------------------------------------------

      A V E R A G E S   O V E R  500000 S T E P S

 NSTEP =   500000   TIME(PS) =    1020.000  TEMP(K) =   298.60  PRESS =     0.0
 Etot   =    -10421.2157  EKtot   =      2423.6382  EPtot      =    -12844.8539
 BOND   =        17.8852  ANGLE   =        32.0451  DIHED      =        18.5294
 1-4 NB =         7.8999  1-4 EEL =       -68.0775  VDWAALS    =      1900.6344
 EELEC  =    -14753.7703  EHBOND  =         0.0000  RESTRAINT  =         0.0000
 EKCMT  =         0.0000  VIRIAL  =         0.0000  VOLUME     =     41237.7476
                                                    Density    =         0.9895
 DV/DL  =         2.8079
 ------------------------------------------------------------------------------

      R M S  F L U C T U A T I O N S

 NSTEP =   500000   TIME(PS) =    1020.000  TEMP(K) =     5.63  PRESS =     0.0
 Etot   =       110.0732  EKtot   =        45.6953  EPtot      =        83.4136
 BOND   =         3.7544  ANGLE   =         3.2415  DIHED      =         2.6979
 1-4 NB =         0.8776  1-4 EEL =         2.7429  VDWAALS    =        63.0767
 EELEC  =       126.1124  EHBOND  =         0.0000  RESTRAINT  =         0.0000
 EKCMT  =         0.0000  VIRIAL  =         0.0000  VOLUME     =       299.0417
                                                    Density    =         0.0072
 DV/DL  =         2.0523
 ------------------------------------------------------------------------------

      DV/DL, AVERAGES OVER  500000 STEPS

 NSTEP =   500000   TIME(PS) =    1020.000  TEMP(K) =     5.63  PRESS =     0.0
 Etot   =         0.0000  EKtot   =         0.0000  EPtot      =         2.7798
 BOND   =         0.0000  ANGLE   =         0.0000  DIHED      =         0.0000
 1-4 NB =         0.0000  1-4 EEL =         0.0000  VDWAALS    =        -0.2545
 EELEC  =        -0.2356  EHBOND  =         0.0000  RESTRAINT  =         0.0000
 EKCMT  =         0.0000  VIRIAL  =         0.0000  VOLUME     =         0.0000
                                                    Density    =         0.0000
 DV/DL  =         2.7798
 ------------------------------------------------------------------------------
