-------------------------------------------------------
          Amber 16 PMEMD                              2016
          -------------------------------------------------------

  [-O]verwriting output

File Assignments:

 Here is the input file:

TI/FEP, NpT, vdW+bonded transformation
 &cntrl
 ! please adjust namelist parameters to your needs!

 ! parameters for general MD
 imin = 0, nstlim = 500000, irest = 1, ntx = 5, dt = 0.002,
 ntt = 3, temp0 = 298.0, gamma_ln = 2.0, ig = -1,
 ntb = 2,
 ntp = 1, barostat = 2, pres0 = 1.01325, taup = 2.0,
 ntwe = 100, ntwx = 10000, ntpr = 1000, ntwr = 50000, ntave = 50000,
 ioutfm = 1, iwrap = 1, ntxo = 2,

 ! parameters for alchemical free energy simulation
 ntc = 2, ntf = 1,
 noshakemask = ':1,2',

 icfe = 1, ifsc = 1, clambda = 0.2063, scalpha = 0.5, scbeta = 12.0,
 ifmbar = 1, mbar_lambda = 0.0 0.0479 0.1150 0.2063 0.3160 0.4373 0.5626 0.6839
 mbar_states = 12, bar_intervall = 1000,   ! ntpr = bar_intervall for alchemica

 timask1=':1', timask2=':2',
scmask1=':1@H34',
scmask2=':2@Cl18',
 crgmask = ':1@H34 | :2@Cl18',
 /
 &ewald
 /

Note: ig = -1. Setting random seed to   655700 based on wallclock time in
      microseconds.

--------------------------------------------------------------------------------
   1.  RESOURCE   USE:
--------------------------------------------------------------------------------

 getting box info from netcdf restart file
 NATOM  =   46594 NTYPES =      28 NBONH =   43475 MBONA  =    3194
 NTHETH =    6827 MTHETA =    4353 NPHIH =   13979 MPHIA  =   13703
 NHPARM =       0 NPARM  =       0 NNB   =   87745 NRES   =   13889
 NBONA  =    3194 NTHETA =    4353 NPHIA =   13703 NUMBND =      89
 NUMANG =     195 NPTRA  =     203 NATYP =      50 NPHB   =       1
 IFBOX  =       1 NMXRS  =      43 IFCAP =       0 NEXTRA =       0
 NCOPY  =       0

     BOX TYPE: RECTILINEAR

--------------------------------------------------------------------------------
   2.  CONTROL  DATA  FOR  THE  RUN
--------------------------------------------------------------------------------

L0

General flags:
     imin    =       0, nmropt  =       0

Nature and format of input:
     ntx     =       5, irest   =       1, ntrx    =       1

Nature and format of output:
     ntxo    =       2, ntpr    =    1000, ntrx    =       1, ntwr    =   50000
     iwrap   =       1, ntwx    =   10000, ntwv    =       0, ntwe    =     100
     ioutfm  =       1, ntwprt  =       0, idecomp =       0, rbornstat=      0

Potential function:
     ntf     =       1, ntb     =       2, igb     =       0, nsnb    =      25
     ipol    =       0, gbsa    =       0, iesp    =       0
     dielc   =   1.00000, cut     =   8.00000, intdiel =   1.00000

Frozen or restrained atoms:
     ibelly  =       0, ntr     =       0

Molecular dynamics:
     nstlim  =    500000, nscm    =      1000, nrespa  =         1
     t       =   0.00000, dt      =   0.00200, vlimit  =  -1.00000

Langevin dynamics temperature regulation:
     ig      =  655700
     temp0   = 298.00000, tempi   =   0.00000, gamma_ln=   2.00000

Pressure regulation:
     ntp     =       1
     pres0   =   1.01325, comp    =  44.60000, taup    =   2.00000
     Monte-Carlo Barostat:
     mcbarint  =     100

SHAKE:
     ntc     =       2, jfastw  =       0
     tol     =   0.00001

Free energy options:
     icfe    =       1, ifsc    =       1, klambda =       1
     clambda =  0.2063, scalpha =  0.5000, scbeta  = 12.0000
     sceeorder =       2
     dynlmb =  0.0000 logdvdl =       0

FEP MBAR options:
     ifmbar  =       1,  bar_intervall =     1000
     mbar_states =      12

Ewald parameters:
     verbose =       0, ew_type =       0, nbflag  =       1, use_pme =       1
     vdwmeth =       1, eedmeth =       1, netfrc  =       1
     Box X =   87.894   Box Y =   67.207   Box Z =   78.608
     Alpha =   90.000   Beta  =   90.000   Gamma =   90.000
     NFFT1 =   96       NFFT2 =   64       NFFT3 =   80
     Cutoff=    8.000   Tol   =0.100E-04
     Ewald Coefficient =  0.34864
     Interpolation order =    4
     TI Mask 1 :1; matches     43 atoms
     TI Mask 2 :2; matches     43 atoms
     TI region 1:   46551 atoms
     TI region 2:   46551 atoms
     SC Mask 1 :1@H34; matches      1 atoms
     SC Mask 2 :2@Cl18; matches      1 atoms
Removing charge of       0.1510 from atom      43
Removing charge of      -0.0609 from atom      86
Total charge of   0.09010100 removed from       2 atoms

    MBAR - lambda values considered:
      12 total:  0.0000 0.0479 0.1150 0.2063 0.3160 0.4373 0.5626 0.6839 0.7936 0.8849 0.9520 1.0000
    Extra energies will be computed    500 times.
 Noshake mask :1,2; matches      86 atoms.

--------------------------------------------------------------------------------
   3.  ATOMIC COORDINATES AND VELOCITIES
--------------------------------------------------------------------------------

L0
 begin time read from input coords =    20.000 ps

     Molecule     1 is partially softcore
     Molecule     2 is partially softcore
 Number of triangulated 3-point waters found:    13488
   Removing shake constraints from C22   L0    1 -- H41   L0    1
   Removing shake constraints from C22   L0    1 -- H42   L0    1
   Removing shake constraints from C21   L0    1 -- H39   L0    1
   Removing shake constraints from C21   L0    1 -- H40   L0    1
   Removing shake constraints from C20   L0    1 -- H38   L0    1
   Removing shake constraints from C19   L0    1 -- H37   L0    1
   Removing shake constraints from C18   L0    1 -- H36   L0    1
   Removing shake constraints from C15   L0    1 -- H35   L0    1
   Removing shake constraints from C14   L0    1 -- H34   L0    1
   Removing shake constraints from C13   L0    1 -- H33   L0    1
   Removing shake constraints from C10   L0    1 -- H32   L0    1
   Removing shake constraints from C9    L0    1 -- H31   L0    1
   Removing shake constraints from C8    L0    1 -- H30   L0    1
   Removing shake constraints from N5    L0    1 -- H29   L0    1
   Removing shake constraints from N4    L0    1 -- H43   L0    1
   Removing shake constraints from N4    L0    1 -- H28   L0    1
   Removing shake constraints from C1    L0    1 -- H25   L0    1
   Removing shake constraints from C1    L0    1 -- H26   L0    1
   Removing shake constraints from C1    L0    1 -- H27   L0    1
   Removing shake constraints from C23   L1    2 -- H41   L1    2
   Removing shake constraints from C23   L1    2 -- H42   L1    2
   Removing shake constraints from C22   L1    2 -- H39   L1    2
   Removing shake constraints from C22   L1    2 -- H40   L1    2
   Removing shake constraints from C21   L1    2 -- H38   L1    2
   Removing shake constraints from C20   L1    2 -- H37   L1    2
   Removing shake constraints from C13   L1    2 -- H34   L1    2
   Removing shake constraints from C16   L1    2 -- H35   L1    2
   Removing shake constraints from C19   L1    2 -- H36   L1    2
   Removing shake constraints from C10   L1    2 -- H33   L1    2
   Removing shake constraints from C9    L1    2 -- H32   L1    2
   Removing shake constraints from C8    L1    2 -- H31   L1    2
   Removing shake constraints from N5    L1    2 -- H30   L1    2
   Removing shake constraints from N4    L1    2 -- H43   L1    2
   Removing shake constraints from N4    L1    2 -- H29   L1    2
   Removing shake constraints from C1    L1    2 -- H26   L1    2
   Removing shake constraints from C1    L1    2 -- H27   L1    2
   Removing shake constraints from C1    L1    2 -- H28   L1    2
 WARNING: SHAKEn bond for atoms       14       43 is partially softcore.
 Coordinates for common atoms will be synchronized from V0.
 Consider using noshake mask or disabling SHAKE.

 Number of shake restraints removed in TI region  1 :       19
 Number of shake restraints removed in TI region  2 :       18

     Sum of charges for TI region  1 =  -0.15102723
     Assuming uniform neutralizing plasma

     Sum of charges for TI region  2 =   0.06096676
     Assuming uniform neutralizing plasma

--------------------------------------------------------------------------------
   4.  RESULTS
 NSTEP =     1000   TIME(PS) =      22.000  TEMP(K) =   283.92  PRESS =     0.0
 Etot   =   -116953.5606  EKtot   =     27137.5371  EPtot      =   -144091.0977
 BOND   =      1169.6138  ANGLE   =      2956.5474  DIHED      =      4879.2932
 1-4 NB =      1404.8447  1-4 EEL =     16041.4989  VDWAALS    =     17644.8283
 EELEC  =   -188187.7239  EHBOND  =         0.0000  RESTRAINT  =         0.0000
 EKCMT  =         0.0000  VIRIAL  =         0.0000  VOLUME     =    466540.7684
                                                    Density    =         1.0212
 DV/DL  =         1.3916
 ------------------------------------------------------------------------------

      A V E R A G E S   O V E R   50000 S T E P S

 NSTEP =    50000   TIME(PS) =     120.000  TEMP(K) =   296.72  PRESS =     0.0
 Etot   =   -111562.0490  EKtot   =     28360.9286  EPtot      =   -139922.9776
 BOND   =      1187.3451  ANGLE   =      3064.0912  DIHED      =      4887.9758
 1-4 NB =      1409.5083  1-4 EEL =     15992.2826  VDWAALS    =     15722.0425
 EELEC  =   -182186.2230  EHBOND  =         0.0000  RESTRAINT  =         0.0000
 EKCMT  =         0.0000  VIRIAL  =         0.0000  VOLUME     =    463290.7059
                                                    Density    =         1.0284
 DV/DL  =         2.7132
 ------------------------------------------------------------------------------

      R M S  F L U C T U A T I O N S

 NSTEP =    50000   TIME(PS) =     120.000  TEMP(K) =    10.34  PRESS =     0.0
 Etot   =      3086.8134  EKtot   =       988.0300  EPtot      =      2118.2702
 BOND   =        48.5115  ANGLE   =        98.9110  DIHED      =        33.8089
 1-4 NB =        16.4030  1-4 EEL =        42.5667  VDWAALS    =       868.6869
 EELEC  =      2820.3649  EHBOND  =         0.0000  RESTRAINT  =         0.0000
 EKCMT  =         0.0000  VIRIAL  =         0.0000  VOLUME     =      1200.9183
                                                    Density    =         0.0027
 DV/DL  =         2.3468
 ------------------------------------------------------------------------------

      A V E R A G E S   O V E R   50000 S T E P S

 NSTEP =    50000   TIME(PS) =     120.000  TEMP(K) =   296.72  PRESS =     0.0
 Etot   =   -111562.0804  EKtot   =     28360.8972  EPtot      =   -139922.9776
 BOND   =      1187.3451  ANGLE   =      3064.0912  DIHED      =      4887.9758
 1-4 NB =      1409.5083  1-4 EEL =     15992.2826  VDWAALS    =     15722.0425
 EELEC  =   -182186.2230  EHBOND  =         0.0000  RESTRAINT  =         0.0000
 EKCMT  =         0.0000  VIRIAL  =         0.0000  VOLUME     =    463290.7059
                                                    Density    =         1.0285
 DV/DL  =         2.7132
 ------------------------------------------------------------------------------

      R M S  F L U C T U A T I O N S

 NSTEP =    50000   TIME(PS) =     120.000  TEMP(K) =    10.34  PRESS =     0.0
 Etot   =      3086.7983  EKtot   =       988.0161  EPtot      =      2118.2702
 BOND   =        48.5115  ANGLE   =        98.9110  DIHED      =        33.8089
 1-4 NB =        16.4030  1-4 EEL =        42.5667  VDWAALS    =       868.6869
 EELEC  =      2820.3649  EHBOND  =         0.0000  RESTRAINT  =         0.0000
 EKCMT  =         0.0000  VIRIAL  =         0.0000  VOLUME     =      1200.9183
                                                    Density    =         0.0027
 DV/DL  =         2.3468
 ------------------------------------------------------------------------------

      DV/DL, AVERAGES OVER   50000 STEPS

 NSTEP =    50000   TIME(PS) =     120.000  TEMP(K) =    10.34  PRESS =     0.0
 Etot   =         0.0000  EKtot   =         0.0000  EPtot      =         2.6865
 BOND   =         0.0000  ANGLE   =         0.0000  DIHED      =         0.0000
 1-4 NB =         0.0000  1-4 EEL =         0.0000  VDWAALS    =        -0.2832
 EELEC  =        -0.1933  EHBOND  =         0.0000  RESTRAINT  =         0.0000
 EKCMT  =         0.0000  VIRIAL  =         0.0000  VOLUME     =         0.0000
                                                    Density    =         0.0000
 DV/DL  =         2.6865
 ------------------------------------------------------------------------------

      A V E R A G E S   O V E R   50000 S T E P S

 NSTEP =   100000   TIME(PS) =     220.000  TEMP(K) =   298.09  PRESS =     0.0
 Etot   =   -111153.8653  EKtot   =     28491.7403  EPtot      =   -139645.6056
 BOND   =      1189.6198  ANGLE   =      3071.1465  DIHED      =      4889.8350
 1-4 NB =      1411.9269  1-4 EEL =     15979.1245  VDWAALS    =     15599.4026
 EELEC  =   -181786.6610  EHBOND  =         0.0000  RESTRAINT  =         0.0000
 EKCMT  =         0.0000  VIRIAL  =         0.0000  VOLUME     =    462990.8383
                                                    Density    =         1.0291
 DV/DL  =         2.6170
 ------------------------------------------------------------------------------

      R M S  F L U C T U A T I O N S

 NSTEP =   100000   TIME(PS) =     220.000  TEMP(K) =     1.35  PRESS =     0.0
 Etot   =       226.4427  EKtot   =       128.5958  EPtot      =       187.1256
 BOND   =        29.0528  ANGLE   =        42.6834  DIHED      =        24.1490
 1-4 NB =        15.2654  1-4 EEL =        42.6021  VDWAALS    =       187.7181
 EELEC  =       294.1549  EHBOND  =         0.0000  RESTRAINT  =         0.0000
 EKCMT  =         0.0000  VIRIAL  =         0.0000  VOLUME     =       925.5067
                                                    Density    =         0.0021
 DV/DL  =         2.2146
 ------------------------------------------------------------------------------

      A V E R A G E S   O V E R   50000 S T E P S

 NSTEP =   100000   TIME(PS) =     220.000  TEMP(K) =   298.09  PRESS =     0.0
 Etot   =   -111153.8677  EKtot   =     28491.7379  EPtot      =   -139645.6056
 BOND   =      1189.6198  ANGLE   =      3071.1465  DIHED      =      4889.8350
 1-4 NB =      1411.9269  1-4 EEL =     15979.1245  VDWAALS    =     15599.4026
 EELEC  =   -181786.6610  EHBOND  =         0.0000  RESTRAINT  =         0.0000
 EKCMT  =         0.0000  VIRIAL  =         0.0000  VOLUME     =    462990.8383
                                                    Density    =         1.0292
 DV/DL  =         2.6170
 ------------------------------------------------------------------------------

      R M S  F L U C T U A T I O N S

 NSTEP =   100000   TIME(PS) =     220.000  TEMP(K) =     1.35  PRESS =     0.0
 Etot   =       226.4423  EKtot   =       128.5990  EPtot      =       187.1256
 BOND   =        29.0528  ANGLE   =        42.6834  DIHED      =        24.1490
 1-4 NB =        15.2654  1-4 EEL =        42.6021  VDWAALS    =       187.7181
 EELEC  =       294.1549  EHBOND  =         0.0000  RESTRAINT  =         0.0000
 EKCMT  =         0.0000  VIRIAL  =         0.0000  VOLUME     =       925.5067
                                                    Density    =         0.0021
 DV/DL  =         2.2146
 ------------------------------------------------------------------------------

      DV/DL, AVERAGES OVER   50000 STEPS

 NSTEP =   100000   TIME(PS) =     220.000  TEMP(K) =     1.35  PRESS =     0.0
 Etot   =         0.0000  EKtot   =         0.0000  EPtot      =         2.5906
 BOND   =         0.0000  ANGLE   =         0.0000  DIHED      =         0.0000
 1-4 NB =         0.0000  1-4 EEL =         0.0000  VDWAALS    =        -0.2834
 EELEC  =        -0.1933  EHBOND  =         0.0000  RESTRAINT  =         0.0000
 EKCMT  =         0.0000  VIRIAL  =         0.0000  VOLUME     =         0.0000
                                                    Density    =         0.0000
 DV/DL  =         2.5906
 ------------------------------------------------------------------------------

      A V E R A G E S   O V E R   50000 S T E P S

 NSTEP =   500000   TIME(PS) =    1020.000  TEMP(K) =   298.21  PRESS =     0.0
 Etot   =   -111173.4956  EKtot   =     28502.8495  EPtot      =   -139676.3450
 BOND   =      1187.8535  ANGLE   =      3062.6525  DIHED      =      4894.6656
 1-4 NB =      1414.5627  1-4 EEL =     15994.6759  VDWAALS    =     15626.7814
 EELEC  =   -181857.5366  EHBOND  =         0.0000  RESTRAINT  =         0.0000
 EKCMT  =         0.0000  VIRIAL  =         0.0000  VOLUME     =    462390.5544
                                                    Density    =         1.0304
 DV/DL  =         1.9053
 ------------------------------------------------------------------------------

      R M S  F L U C T U A T I O N S

 NSTEP =   500000   TIME(PS) =    1020.000  TEMP(K) =     1.32  PRESS =     0.0
 Etot   =       212.3456  EKtot   =       126.4787  EPtot      =       177.1676
 BOND   =        29.2263  ANGLE   =        42.1674  DIHED      =        24.2559
 1-4 NB =        15.3701  1-4 EEL =        43.0040  VDWAALS    =       185.9571
 EELEC  =       282.5771  EHBOND  =         0.0000  RESTRAINT  =         0.0000
 EKCMT  =         0.0000  VIRIAL  =         0.0000  VOLUME     =       921.6368
                                                    Density    =         0.0021
 DV/DL  =         2.2088
 ------------------------------------------------------------------------------

      A V E R A G E S   O V E R   50000 S T E P S

 NSTEP =   500000   TIME(PS) =    1020.000  TEMP(K) =   298.21  PRESS =     0.0
 Etot   =   -111173.4618  EKtot   =     28502.8832  EPtot      =   -139676.3450
 BOND   =      1187.8535  ANGLE   =      3062.6525  DIHED      =      4894.6656
 1-4 NB =      1414.5627  1-4 EEL =     15994.6759  VDWAALS    =     15626.7814
 EELEC  =   -181857.5366  EHBOND  =         0.0000  RESTRAINT  =         0.0000
 EKCMT  =         0.0000  VIRIAL  =         0.0000  VOLUME     =    462390.5544
                                                    Density    =         1.0305
 DV/DL  =         1.9053
 ------------------------------------------------------------------------------

      R M S  F L U C T U A T I O N S

 NSTEP =   500000   TIME(PS) =    1020.000  TEMP(K) =     1.32  PRESS =     0.0
 Etot   =       212.3377  EKtot   =       126.4678  EPtot      =       177.1676
 BOND   =        29.2263  ANGLE   =        42.1674  DIHED      =        24.2559
 1-4 NB =        15.3701  1-4 EEL =        43.0040  VDWAALS    =       185.9571
 EELEC  =       282.5771  EHBOND  =         0.0000  RESTRAINT  =         0.0000
 EKCMT  =         0.0000  VIRIAL  =         0.0000  VOLUME     =       921.6368
                                                    Density    =         0.0021
 DV/DL  =         2.2088
 ------------------------------------------------------------------------------

      DV/DL, AVERAGES OVER   50000 STEPS

 NSTEP =   500000   TIME(PS) =    1020.000  TEMP(K) =     1.32  PRESS =     0.0
 Etot   =         0.0000  EKtot   =         0.0000  EPtot      =         1.8870
 BOND   =         0.0000  ANGLE   =         0.0000  DIHED      =         0.0000
 1-4 NB =         0.0000  1-4 EEL =         0.0000  VDWAALS    =        -0.2838
 EELEC  =        -0.1933  EHBOND  =         0.0000  RESTRAINT  =         0.0000
 EKCMT  =         0.0000  VIRIAL  =         0.0000  VOLUME     =         0.0000
                                                    Density    =         0.0000
 DV/DL  =         1.8870
 ------------------------------------------------------------------------------

      A V E R A G E S   O V E R  500000 S T E P S

 NSTEP =   500000   TIME(PS) =    1020.000  TEMP(K) =   297.98  PRESS =     0.0
 Etot   =   -111189.0114  EKtot   =     28481.3746  EPtot      =   -139670.3861
 BOND   =      1188.3380  ANGLE   =      3064.5182  DIHED      =      4895.4326
 1-4 NB =      1413.1756  1-4 EEL =     16000.4229  VDWAALS    =     15610.4579
 EELEC  =   -181842.7313  EHBOND  =         0.0000  RESTRAINT  =         0.0000
 EKCMT  =         0.0000  VIRIAL  =         0.0000  VOLUME     =    462996.6558
                                                    Density    =         1.0291
 DV/DL  =         2.2067
 ------------------------------------------------------------------------------

      R M S  F L U C T U A T I O N S

 NSTEP =   500000   TIME(PS) =    1020.000  TEMP(K) =     3.53  PRESS =     0.0
 Etot   =      1006.2313  EKtot   =       337.8660  EPtot      =       697.3455
 BOND   =        31.5654  ANGLE   =        50.9938  DIHED      =        26.5955
 1-4 NB =        15.5435  1-4 EEL =        44.0076  VDWAALS    =       326.4923
 EELEC  =       939.2900  EHBOND  =         0.0000  RESTRAINT  =         0.0000
 EKCMT  =         0.0000  VIRIAL  =         0.0000  VOLUME     =       977.6118
                                                    Density    =         0.0022
 DV/DL  =         2.2170
 ------------------------------------------------------------------------------

      A V E R A G E S   O V E R  500000 S T E P S

 NSTEP =   500000   TIME(PS) =    1020.000  TEMP(K) =   297.98  PRESS =     0.0
 Etot   =   -111189.0104  EKtot   =     28481.3757  EPtot      =   -139670.3861
 BOND   =      1188.3380  ANGLE   =      3064.5182  DIHED      =      4895.4326
 1-4 NB =      1413.1756  1-4 EEL =     16000.4229  VDWAALS    =     15610.4579
 EELEC  =   -181842.7313  EHBOND  =         0.0000  RESTRAINT  =         0.0000
 EKCMT  =         0.0000  VIRIAL  =         0.0000  VOLUME     =    462996.6558
                                                    Density    =         1.0292
 DV/DL  =         2.2067
 ------------------------------------------------------------------------------

      R M S  F L U C T U A T I O N S

 NSTEP =   500000   TIME(PS) =    1020.000  TEMP(K) =     3.53  PRESS =     0.0
 Etot   =      1006.2270  EKtot   =       337.8610  EPtot      =       697.3455
 BOND   =        31.5654  ANGLE   =        50.9938  DIHED      =        26.5955
 1-4 NB =        15.5435  1-4 EEL =        44.0076  VDWAALS    =       326.4923
 EELEC  =       939.2900  EHBOND  =         0.0000  RESTRAINT  =         0.0000
 EKCMT  =         0.0000  VIRIAL  =         0.0000  VOLUME     =       977.6118
                                                    Density    =         0.0022
 DV/DL  =         2.2170
 ------------------------------------------------------------------------------

      DV/DL, AVERAGES OVER  500000 STEPS

 NSTEP =   500000   TIME(PS) =    1020.000  TEMP(K) =     3.53  PRESS =     0.0
 Etot   =         0.0000  EKtot   =         0.0000  EPtot      =         2.1846
 BOND   =         0.0000  ANGLE   =         0.0000  DIHED      =         0.0000
 1-4 NB =         0.0000  1-4 EEL =         0.0000  VDWAALS    =        -0.2834
 EELEC  =        -0.1933  EHBOND  =         0.0000  RESTRAINT  =         0.0000
 EKCMT  =         0.0000  VIRIAL  =         0.0000  VOLUME     =         0.0000
                                                    Density    =         0.0000
 DV/DL  =         2.1846
 ------------------------------------------------------------------------------
