-------------------------------------------------------
          Amber 16 PMEMD                              2016
          -------------------------------------------------------

  [-O]verwriting output

File Assignments:

 Here is the input file:

TI/FEP, NpT, vdW+bonded transformation
 &cntrl
 ! please adjust namelist parameters to your needs!

 ! parameters for general MD
 imin = 0, nstlim = 500000, irest = 1, ntx = 5, dt = 0.002,
 ntt = 3, temp0 = 298.0, gamma_ln = 2.0, ig = -1,
 ntb = 2,
 ntp = 1, barostat = 2, pres0 = 1.01325, taup = 2.0,
 ntwe = 100, ntwx = 10000, ntpr = 1000, ntwr = 50000, ntave = 50000,
 ioutfm = 1, iwrap = 1, ntxo = 2,

 ! parameters for alchemical free energy simulation
 ntc = 2, ntf = 1,
 noshakemask = ':1,2',

 icfe = 1, ifsc = 1, clambda = 0.7936, scalpha = 0.5, scbeta = 12.0,
 ifmbar = 1, mbar_lambda = 0.0 0.0479 0.1150 0.2063 0.3160 0.4373 0.5626 0.6839
 mbar_states = 12, bar_intervall = 1000,   ! ntpr = bar_intervall for alchemica

 timask1=':1', timask2=':2',
scmask1=':1@H34',
scmask2=':2@Cl18',
 crgmask = ':1@H34 | :2@Cl18',
 /
 &ewald
 /

Note: ig = -1. Setting random seed to   401539 based on wallclock time in
      microseconds.

--------------------------------------------------------------------------------
   1.  RESOURCE   USE:
--------------------------------------------------------------------------------

 getting box info from netcdf restart file
 NATOM  =   46594 NTYPES =      28 NBONH =   43475 MBONA  =    3194
 NTHETH =    6827 MTHETA =    4353 NPHIH =   13979 MPHIA  =   13703
 NHPARM =       0 NPARM  =       0 NNB   =   87745 NRES   =   13889
 NBONA  =    3194 NTHETA =    4353 NPHIA =   13703 NUMBND =      89
 NUMANG =     195 NPTRA  =     203 NATYP =      50 NPHB   =       1
 IFBOX  =       1 NMXRS  =      43 IFCAP =       0 NEXTRA =       0
 NCOPY  =       0

     BOX TYPE: RECTILINEAR

--------------------------------------------------------------------------------
   2.  CONTROL  DATA  FOR  THE  RUN
--------------------------------------------------------------------------------

L0

General flags:
     imin    =       0, nmropt  =       0

Nature and format of input:
     ntx     =       5, irest   =       1, ntrx    =       1

Nature and format of output:
     ntxo    =       2, ntpr    =    1000, ntrx    =       1, ntwr    =   50000
     iwrap   =       1, ntwx    =   10000, ntwv    =       0, ntwe    =     100
     ioutfm  =       1, ntwprt  =       0, idecomp =       0, rbornstat=      0

Potential function:
     ntf     =       1, ntb     =       2, igb     =       0, nsnb    =      25
     ipol    =       0, gbsa    =       0, iesp    =       0
     dielc   =   1.00000, cut     =   8.00000, intdiel =   1.00000

Frozen or restrained atoms:
     ibelly  =       0, ntr     =       0

Molecular dynamics:
     nstlim  =    500000, nscm    =      1000, nrespa  =         1
     t       =   0.00000, dt      =   0.00200, vlimit  =  -1.00000

Langevin dynamics temperature regulation:
     ig      =  401539
     temp0   = 298.00000, tempi   =   0.00000, gamma_ln=   2.00000

Pressure regulation:
     ntp     =       1
     pres0   =   1.01325, comp    =  44.60000, taup    =   2.00000
     Monte-Carlo Barostat:
     mcbarint  =     100

SHAKE:
     ntc     =       2, jfastw  =       0
     tol     =   0.00001

Free energy options:
     icfe    =       1, ifsc    =       1, klambda =       1
     clambda =  0.7936, scalpha =  0.5000, scbeta  = 12.0000
     sceeorder =       2
     dynlmb =  0.0000 logdvdl =       0

FEP MBAR options:
     ifmbar  =       1,  bar_intervall =     1000
     mbar_states =      12

Ewald parameters:
     verbose =       0, ew_type =       0, nbflag  =       1, use_pme =       1
     vdwmeth =       1, eedmeth =       1, netfrc  =       1
     Box X =   87.894   Box Y =   67.207   Box Z =   78.608
     Alpha =   90.000   Beta  =   90.000   Gamma =   90.000
     NFFT1 =   96       NFFT2 =   64       NFFT3 =   80
     Cutoff=    8.000   Tol   =0.100E-04
     Ewald Coefficient =  0.34864
     Interpolation order =    4
     TI Mask 1 :1; matches     43 atoms
     TI Mask 2 :2; matches     43 atoms
     TI region 1:   46551 atoms
     TI region 2:   46551 atoms
     SC Mask 1 :1@H34; matches      1 atoms
     SC Mask 2 :2@Cl18; matches      1 atoms
Removing charge of       0.1510 from atom      43
Removing charge of      -0.0609 from atom      86
Total charge of   0.09010100 removed from       2 atoms

    MBAR - lambda values considered:
      12 total:  0.0000 0.0479 0.1150 0.2063 0.3160 0.4373 0.5626 0.6839 0.7936 0.8849 0.9520 1.0000
    Extra energies will be computed    500 times.
 Noshake mask :1,2; matches      86 atoms.

--------------------------------------------------------------------------------
   3.  ATOMIC COORDINATES AND VELOCITIES
--------------------------------------------------------------------------------

L0
 begin time read from input coords =    20.000 ps

     Molecule     1 is partially softcore
     Molecule     2 is partially softcore
 Number of triangulated 3-point waters found:    13488
   Removing shake constraints from C22   L0    1 -- H41   L0    1
   Removing shake constraints from C22   L0    1 -- H42   L0    1
   Removing shake constraints from C21   L0    1 -- H39   L0    1
   Removing shake constraints from C21   L0    1 -- H40   L0    1
   Removing shake constraints from C20   L0    1 -- H38   L0    1
   Removing shake constraints from C19   L0    1 -- H37   L0    1
   Removing shake constraints from C18   L0    1 -- H36   L0    1
   Removing shake constraints from C15   L0    1 -- H35   L0    1
   Removing shake constraints from C14   L0    1 -- H34   L0    1
   Removing shake constraints from C13   L0    1 -- H33   L0    1
   Removing shake constraints from C10   L0    1 -- H32   L0    1
   Removing shake constraints from C9    L0    1 -- H31   L0    1
   Removing shake constraints from C8    L0    1 -- H30   L0    1
   Removing shake constraints from N5    L0    1 -- H29   L0    1
   Removing shake constraints from N4    L0    1 -- H43   L0    1
   Removing shake constraints from N4    L0    1 -- H28   L0    1
   Removing shake constraints from C1    L0    1 -- H25   L0    1
   Removing shake constraints from C1    L0    1 -- H26   L0    1
   Removing shake constraints from C1    L0    1 -- H27   L0    1
   Removing shake constraints from C23   L1    2 -- H41   L1    2
   Removing shake constraints from C23   L1    2 -- H42   L1    2
   Removing shake constraints from C22   L1    2 -- H39   L1    2
   Removing shake constraints from C22   L1    2 -- H40   L1    2
   Removing shake constraints from C21   L1    2 -- H38   L1    2
   Removing shake constraints from C20   L1    2 -- H37   L1    2
   Removing shake constraints from C13   L1    2 -- H34   L1    2
   Removing shake constraints from C16   L1    2 -- H35   L1    2
   Removing shake constraints from C19   L1    2 -- H36   L1    2
   Removing shake constraints from C10   L1    2 -- H33   L1    2
   Removing shake constraints from C9    L1    2 -- H32   L1    2
   Removing shake constraints from C8    L1    2 -- H31   L1    2
   Removing shake constraints from N5    L1    2 -- H30   L1    2
   Removing shake constraints from N4    L1    2 -- H43   L1    2
   Removing shake constraints from N4    L1    2 -- H29   L1    2
   Removing shake constraints from C1    L1    2 -- H26   L1    2
   Removing shake constraints from C1    L1    2 -- H27   L1    2
   Removing shake constraints from C1    L1    2 -- H28   L1    2
 WARNING: SHAKEn bond for atoms       14       43 is partially softcore.
 Coordinates for common atoms will be synchronized from V0.
 Consider using noshake mask or disabling SHAKE.

 Number of shake restraints removed in TI region  1 :       19
 Number of shake restraints removed in TI region  2 :       18

     Sum of charges for TI region  1 =  -0.15102723
     Assuming uniform neutralizing plasma

     Sum of charges for TI region  2 =   0.06096676
     Assuming uniform neutralizing plasma

--------------------------------------------------------------------------------
   4.  RESULTS
 NSTEP =     1000   TIME(PS) =      22.000  TEMP(K) =   284.11  PRESS =     0.0
 Etot   =   -117056.0149  EKtot   =     27155.6074  EPtot      =   -144211.6223
 BOND   =      1183.1127  ANGLE   =      3088.6828  DIHED      =      4812.8950
 1-4 NB =      1414.6966  1-4 EEL =     16038.7512  VDWAALS    =     17450.4727
 EELEC  =   -188200.2333  EHBOND  =         0.0000  RESTRAINT  =         0.0000
 EKCMT  =         0.0000  VIRIAL  =         0.0000  VOLUME     =    465649.7801
                                                    Density    =         1.0232
 DV/DL  =         6.6263
 ------------------------------------------------------------------------------

      A V E R A G E S   O V E R   50000 S T E P S

 NSTEP =    50000   TIME(PS) =     120.000  TEMP(K) =   296.69  PRESS =     0.0
 Etot   =   -111620.6567  EKtot   =     28357.6295  EPtot      =   -139978.2862
 BOND   =      1186.2152  ANGLE   =      3065.4335  DIHED      =      4888.6053
 1-4 NB =      1411.4053  1-4 EEL =     15992.7888  VDWAALS    =     15726.5816
 EELEC  =   -182249.3160  EHBOND  =         0.0000  RESTRAINT  =         0.0000
 EKCMT  =         0.0000  VIRIAL  =         0.0000  VOLUME     =    462940.1967
                                                    Density    =         1.0292
 DV/DL  =         0.8160
 ------------------------------------------------------------------------------

      R M S  F L U C T U A T I O N S

 NSTEP =    50000   TIME(PS) =     120.000  TEMP(K) =    10.39  PRESS =     0.0
 Etot   =      3116.9466  EKtot   =       993.3919  EPtot      =      2144.5458
 BOND   =        48.3895  ANGLE   =        97.9434  DIHED      =        34.4022
 1-4 NB =        16.4690  1-4 EEL =        42.5635  VDWAALS    =       881.8848
 EELEC  =      2863.8028  EHBOND  =         0.0000  RESTRAINT  =         0.0000
 EKCMT  =         0.0000  VIRIAL  =         0.0000  VOLUME     =       891.3178
                                                    Density    =         0.0020
 DV/DL  =         3.5522
 ------------------------------------------------------------------------------

      A V E R A G E S   O V E R   50000 S T E P S

 NSTEP =    50000   TIME(PS) =     120.000  TEMP(K) =   296.69  PRESS =     0.0
 Etot   =   -111620.6482  EKtot   =     28357.6380  EPtot      =   -139978.2862
 BOND   =      1186.2152  ANGLE   =      3065.4335  DIHED      =      4888.6053
 1-4 NB =      1411.4053  1-4 EEL =     15992.7888  VDWAALS    =     15726.5816
 EELEC  =   -182249.3160  EHBOND  =         0.0000  RESTRAINT  =         0.0000
 EKCMT  =         0.0000  VIRIAL  =         0.0000  VOLUME     =    462940.1967
                                                    Density    =         1.0293
 DV/DL  =         0.8160
 ------------------------------------------------------------------------------

      R M S  F L U C T U A T I O N S

 NSTEP =    50000   TIME(PS) =     120.000  TEMP(K) =    10.39  PRESS =     0.0
 Etot   =      3116.9247  EKtot   =       993.3654  EPtot      =      2144.5458
 BOND   =        48.3895  ANGLE   =        97.9434  DIHED      =        34.4022
 1-4 NB =        16.4690  1-4 EEL =        42.5635  VDWAALS    =       881.8848
 EELEC  =      2863.8028  EHBOND  =         0.0000  RESTRAINT  =         0.0000
 EKCMT  =         0.0000  VIRIAL  =         0.0000  VOLUME     =       891.3178
                                                    Density    =         0.0020
 DV/DL  =         3.5522
 ------------------------------------------------------------------------------

      DV/DL, AVERAGES OVER   50000 STEPS

 NSTEP =    50000   TIME(PS) =     120.000  TEMP(K) =    10.39  PRESS =     0.0
 Etot   =         0.0000  EKtot   =         0.0000  EPtot      =         0.8073
 BOND   =         0.0000  ANGLE   =         0.0000  DIHED      =         0.0000
 1-4 NB =         0.0000  1-4 EEL =         0.0000  VDWAALS    =        -0.2834
 EELEC  =        -0.1933  EHBOND  =         0.0000  RESTRAINT  =         0.0000
 EKCMT  =         0.0000  VIRIAL  =         0.0000  VOLUME     =         0.0000
                                                    Density    =         0.0000
 DV/DL  =         0.8073
 ------------------------------------------------------------------------------

      A V E R A G E S   O V E R   50000 S T E P S

 NSTEP =   100000   TIME(PS) =     220.000  TEMP(K) =   298.20  PRESS =     0.0
 Etot   =   -111182.8240  EKtot   =     28502.2893  EPtot      =   -139685.1133
 BOND   =      1191.2386  ANGLE   =      3072.3938  DIHED      =      4887.4851
 1-4 NB =      1412.8222  1-4 EEL =     15995.0635  VDWAALS    =     15617.1692
 EELEC  =   -181861.2858  EHBOND  =         0.0000  RESTRAINT  =         0.0000
 EKCMT  =         0.0000  VIRIAL  =         0.0000  VOLUME     =    462140.3653
                                                    Density    =         1.0310
 DV/DL  =         0.5906
 ------------------------------------------------------------------------------

      R M S  F L U C T U A T I O N S

 NSTEP =   100000   TIME(PS) =     220.000  TEMP(K) =     1.36  PRESS =     0.0
 Etot   =       217.5469  EKtot   =       130.0114  EPtot      =       175.4676
 BOND   =        28.9233  ANGLE   =        41.9458  DIHED      =        23.5740
 1-4 NB =        15.4676  1-4 EEL =        41.6381  VDWAALS    =       179.3801
 EELEC  =       274.6502  EHBOND  =         0.0000  RESTRAINT  =         0.0000
 EKCMT  =         0.0000  VIRIAL  =         0.0000  VOLUME     =       740.5771
                                                    Density    =         0.0017
 DV/DL  =         3.1701
 ------------------------------------------------------------------------------

      A V E R A G E S   O V E R   50000 S T E P S

 NSTEP =   100000   TIME(PS) =     220.000  TEMP(K) =   298.20  PRESS =     0.0
 Etot   =   -111182.8420  EKtot   =     28502.2713  EPtot      =   -139685.1133
 BOND   =      1191.2386  ANGLE   =      3072.3938  DIHED      =      4887.4851
 1-4 NB =      1412.8222  1-4 EEL =     15995.0635  VDWAALS    =     15617.1692
 EELEC  =   -181861.2858  EHBOND  =         0.0000  RESTRAINT  =         0.0000
 EKCMT  =         0.0000  VIRIAL  =         0.0000  VOLUME     =    462140.3653
                                                    Density    =         1.0311
 DV/DL  =         0.5906
 ------------------------------------------------------------------------------

      R M S  F L U C T U A T I O N S

 NSTEP =   100000   TIME(PS) =     220.000  TEMP(K) =     1.36  PRESS =     0.0
 Etot   =       217.5235  EKtot   =       130.0168  EPtot      =       175.4676
 BOND   =        28.9233  ANGLE   =        41.9458  DIHED      =        23.5740
 1-4 NB =        15.4676  1-4 EEL =        41.6381  VDWAALS    =       179.3801
 EELEC  =       274.6502  EHBOND  =         0.0000  RESTRAINT  =         0.0000
 EKCMT  =         0.0000  VIRIAL  =         0.0000  VOLUME     =       740.5771
                                                    Density    =         0.0017
 DV/DL  =         3.1701
 ------------------------------------------------------------------------------

      DV/DL, AVERAGES OVER   50000 STEPS

 NSTEP =   100000   TIME(PS) =     220.000  TEMP(K) =     1.36  PRESS =     0.0
 Etot   =         0.0000  EKtot   =         0.0000  EPtot      =         0.5846
 BOND   =         0.0000  ANGLE   =         0.0000  DIHED      =         0.0000
 1-4 NB =         0.0000  1-4 EEL =         0.0000  VDWAALS    =        -0.2839
 EELEC  =        -0.1933  EHBOND  =         0.0000  RESTRAINT  =         0.0000
 EKCMT  =         0.0000  VIRIAL  =         0.0000  VOLUME     =         0.0000
                                                    Density    =         0.0000
 DV/DL  =         0.5846
 ------------------------------------------------------------------------------

      A V E R A G E S   O V E R   50000 S T E P S

 NSTEP =   500000   TIME(PS) =    1020.000  TEMP(K) =   298.11  PRESS =     0.0
 Etot   =   -111199.4594  EKtot   =     28493.1930  EPtot      =   -139692.6524
 BOND   =      1188.7149  ANGLE   =      3070.9086  DIHED      =      4898.4881
 1-4 NB =      1408.9920  1-4 EEL =     16005.7910  VDWAALS    =     15606.8896
 EELEC  =   -181872.4366  EHBOND  =         0.0000  RESTRAINT  =         0.0000
 EKCMT  =         0.0000  VIRIAL  =         0.0000  VOLUME     =    462417.9841
                                                    Density    =         1.0303
 DV/DL  =         0.7868
 ------------------------------------------------------------------------------

      R M S  F L U C T U A T I O N S

 NSTEP =   500000   TIME(PS) =    1020.000  TEMP(K) =     1.38  PRESS =     0.0
 Etot   =       220.0369  EKtot   =       131.7118  EPtot      =       177.7159
 BOND   =        29.6407  ANGLE   =        41.6691  DIHED      =        23.8800
 1-4 NB =        15.4422  1-4 EEL =        41.6641  VDWAALS    =       185.8361
 EELEC  =       287.6359  EHBOND  =         0.0000  RESTRAINT  =         0.0000
 EKCMT  =         0.0000  VIRIAL  =         0.0000  VOLUME     =       835.1195
                                                    Density    =         0.0019
 DV/DL  =         3.3386
 ------------------------------------------------------------------------------

      A V E R A G E S   O V E R   50000 S T E P S

 NSTEP =   500000   TIME(PS) =    1020.000  TEMP(K) =   298.11  PRESS =     0.0
 Etot   =   -111199.4480  EKtot   =     28493.2044  EPtot      =   -139692.6524
 BOND   =      1188.7149  ANGLE   =      3070.9086  DIHED      =      4898.4881
 1-4 NB =      1408.9920  1-4 EEL =     16005.7910  VDWAALS    =     15606.8896
 EELEC  =   -181872.4366  EHBOND  =         0.0000  RESTRAINT  =         0.0000
 EKCMT  =         0.0000  VIRIAL  =         0.0000  VOLUME     =    462417.9841
                                                    Density    =         1.0305
 DV/DL  =         0.7868
 ------------------------------------------------------------------------------

      R M S  F L U C T U A T I O N S

 NSTEP =   500000   TIME(PS) =    1020.000  TEMP(K) =     1.38  PRESS =     0.0
 Etot   =       220.0593  EKtot   =       131.7474  EPtot      =       177.7159
 BOND   =        29.6407  ANGLE   =        41.6691  DIHED      =        23.8800
 1-4 NB =        15.4422  1-4 EEL =        41.6641  VDWAALS    =       185.8361
 EELEC  =       287.6359  EHBOND  =         0.0000  RESTRAINT  =         0.0000
 EKCMT  =         0.0000  VIRIAL  =         0.0000  VOLUME     =       835.1195
                                                    Density    =         0.0019
 DV/DL  =         3.3386
 ------------------------------------------------------------------------------

      DV/DL, AVERAGES OVER   50000 STEPS

 NSTEP =   500000   TIME(PS) =    1020.000  TEMP(K) =     1.38  PRESS =     0.0
 Etot   =         0.0000  EKtot   =         0.0000  EPtot      =         0.7804
 BOND   =         0.0000  ANGLE   =         0.0000  DIHED      =         0.0000
 1-4 NB =         0.0000  1-4 EEL =         0.0000  VDWAALS    =        -0.2838
 EELEC  =        -0.1933  EHBOND  =         0.0000  RESTRAINT  =         0.0000
 EKCMT  =         0.0000  VIRIAL  =         0.0000  VOLUME     =         0.0000
                                                    Density    =         0.0000
 DV/DL  =         0.7804
 ------------------------------------------------------------------------------

      A V E R A G E S   O V E R  500000 S T E P S

 NSTEP =   500000   TIME(PS) =    1020.000  TEMP(K) =   297.92  PRESS =     0.0
 Etot   =   -111239.6458  EKtot   =     28475.5339  EPtot      =   -139715.1796
 BOND   =      1188.2529  ANGLE   =      3070.9989  DIHED      =      4890.0115
 1-4 NB =      1410.4839  1-4 EEL =     15990.7163  VDWAALS    =     15617.8251
 EELEC  =   -181883.4683  EHBOND  =         0.0000  RESTRAINT  =         0.0000
 EKCMT  =         0.0000  VIRIAL  =         0.0000  VOLUME     =    462577.0607
                                                    Density    =         1.0300
 DV/DL  =         0.5264
 ------------------------------------------------------------------------------

      R M S  F L U C T U A T I O N S

 NSTEP =   500000   TIME(PS) =    1020.000  TEMP(K) =     3.56  PRESS =     0.0
 Etot   =      1017.0345  EKtot   =       340.0539  EPtot      =       706.0732
 BOND   =        31.4294  ANGLE   =        50.5077  DIHED      =        26.1356
 1-4 NB =        15.4952  1-4 EEL =        45.1504  VDWAALS    =       331.2522
 EELEC  =       955.1697  EHBOND  =         0.0000  RESTRAINT  =         0.0000
 EKCMT  =         0.0000  VIRIAL  =         0.0000  VOLUME     =       946.0945
                                                    Density    =         0.0021
 DV/DL  =         3.3482
 ------------------------------------------------------------------------------

      A V E R A G E S   O V E R  500000 S T E P S

 NSTEP =   500000   TIME(PS) =    1020.000  TEMP(K) =   297.92  PRESS =     0.0
 Etot   =   -111239.6429  EKtot   =     28475.5368  EPtot      =   -139715.1796
 BOND   =      1188.2529  ANGLE   =      3070.9989  DIHED      =      4890.0115
 1-4 NB =      1410.4839  1-4 EEL =     15990.7163  VDWAALS    =     15617.8251
 EELEC  =   -181883.4683  EHBOND  =         0.0000  RESTRAINT  =         0.0000
 EKCMT  =         0.0000  VIRIAL  =         0.0000  VOLUME     =    462577.0607
                                                    Density    =         1.0301
 DV/DL  =         0.5264
 ------------------------------------------------------------------------------

      R M S  F L U C T U A T I O N S

 NSTEP =   500000   TIME(PS) =    1020.000  TEMP(K) =     3.56  PRESS =     0.0
 Etot   =      1017.0285  EKtot   =       340.0460  EPtot      =       706.0732
 BOND   =        31.4294  ANGLE   =        50.5077  DIHED      =        26.1356
 1-4 NB =        15.4952  1-4 EEL =        45.1504  VDWAALS    =       331.2522
 EELEC  =       955.1697  EHBOND  =         0.0000  RESTRAINT  =         0.0000
 EKCMT  =         0.0000  VIRIAL  =         0.0000  VOLUME     =       946.0945
                                                    Density    =         0.0021
 DV/DL  =         3.3482
 ------------------------------------------------------------------------------

      DV/DL, AVERAGES OVER  500000 STEPS

 NSTEP =   500000   TIME(PS) =    1020.000  TEMP(K) =     3.56  PRESS =     0.0
 Etot   =         0.0000  EKtot   =         0.0000  EPtot      =         0.5213
 BOND   =         0.0000  ANGLE   =         0.0000  DIHED      =         0.0000
 1-4 NB =         0.0000  1-4 EEL =         0.0000  VDWAALS    =        -0.2837
 EELEC  =        -0.1933  EHBOND  =         0.0000  RESTRAINT  =         0.0000
 EKCMT  =         0.0000  VIRIAL  =         0.0000  VOLUME     =         0.0000
                                                    Density    =         0.0000
 DV/DL  =         0.5213
 ------------------------------------------------------------------------------
