-------------------------------------------------------
          Amber 16 PMEMD                              2016
          -------------------------------------------------------

  [-O]verwriting output

File Assignments:

 Here is the input file:

TI/FEP, NpT, recharge transformation
 &cntrl
 ! please adjust namelist parameters to your needs!

 ! parameters for general MD
 imin = 0, nstlim = 500000, irest = 1, ntx = 5, dt = 0.002,
 ntt = 3, temp0 = 298.0, gamma_ln = 2.0, ig = -1,
 ntb = 2,
 ntp = 1, barostat = 2, pres0 = 1.01325, taup = 2.0,
 ntwe = 100, ntwx = 10000, ntpr = 1000, ntwr = 50000, ntave = 50000,
 ioutfm = 1, iwrap = 1, ntxo = 2,

 ! parameters for alchemical free energy simulation
 ntc = 2, ntf = 1,
 noshakemask = ':1,2',

 icfe = 1, ifsc = 0, clambda = 0.75, scalpha = 0.5, scbeta = 12.0,
 ifmbar = 1, mbar_lambda = 0.00 0.25 0.50 0.75 1.00,
 mbar_states = 5, bar_intervall = 1000,   ! ntpr = bar_intervall for alchemical

 timask1=':1', timask2=':2',
scmask1='',
scmask2='',
 crgmask = ':1@Cl18',
 /
 &ewald
 /

Note: ig = -1. Setting random seed to   992813 based on wallclock time in
      microseconds.

--------------------------------------------------------------------------------
   1.  RESOURCE   USE:
--------------------------------------------------------------------------------

 getting box info from netcdf restart file
 NATOM  =   46594 NTYPES =      28 NBONH =   43474 MBONA  =    3195
 NTHETH =    6825 MTHETA =    4355 NPHIH =   13976 MPHIA  =   13706
 NHPARM =       0 NPARM  =       0 NNB   =   87745 NRES   =   13889
 NBONA  =    3195 NTHETA =    4355 NPHIA =   13706 NUMBND =      89
 NUMANG =     195 NPTRA  =     203 NATYP =      50 NPHB   =       1
 IFBOX  =       1 NMXRS  =      43 IFCAP =       0 NEXTRA =       0
 NCOPY  =       0

     BOX TYPE: RECTILINEAR

--------------------------------------------------------------------------------
   2.  CONTROL  DATA  FOR  THE  RUN
--------------------------------------------------------------------------------

L1

General flags:
     imin    =       0, nmropt  =       0

Nature and format of input:
     ntx     =       5, irest   =       1, ntrx    =       1

Nature and format of output:
     ntxo    =       2, ntpr    =    1000, ntrx    =       1, ntwr    =   50000
     iwrap   =       1, ntwx    =   10000, ntwv    =       0, ntwe    =     100
     ioutfm  =       1, ntwprt  =       0, idecomp =       0, rbornstat=      0

Potential function:
     ntf     =       1, ntb     =       2, igb     =       0, nsnb    =      25
     ipol    =       0, gbsa    =       0, iesp    =       0
     dielc   =   1.00000, cut     =   8.00000, intdiel =   1.00000

Frozen or restrained atoms:
     ibelly  =       0, ntr     =       0

Molecular dynamics:
     nstlim  =    500000, nscm    =      1000, nrespa  =         1
     t       =   0.00000, dt      =   0.00200, vlimit  =  -1.00000

Langevin dynamics temperature regulation:
     ig      =  992813
     temp0   = 298.00000, tempi   =   0.00000, gamma_ln=   2.00000

Pressure regulation:
     ntp     =       1
     pres0   =   1.01325, comp    =  44.60000, taup    =   2.00000
     Monte-Carlo Barostat:
     mcbarint  =     100

SHAKE:
     ntc     =       2, jfastw  =       0
     tol     =   0.00001

Free energy options:
     icfe    =       1, ifsc    =       0, klambda =       1
     clambda =  0.7500, scalpha =  0.5000, scbeta  = 12.0000
     sceeorder =       2
     dynlmb =  0.0000 logdvdl =       0

FEP MBAR options:
     ifmbar  =       1,  bar_intervall =     1000
     mbar_states =       5

Ewald parameters:
     verbose =       0, ew_type =       0, nbflag  =       1, use_pme =       1
     vdwmeth =       1, eedmeth =       1, netfrc  =       1
     Box X =   87.894   Box Y =   67.207   Box Z =   78.608
     Alpha =   90.000   Beta  =   90.000   Gamma =   90.000
     NFFT1 =   96       NFFT2 =   64       NFFT3 =   80
     Cutoff=    8.000   Tol   =0.100E-04
     Ewald Coefficient =  0.34864
     Interpolation order =    4
     TI Mask 1 :1; matches     43 atoms
     TI Mask 2 :2; matches     43 atoms
     TI region 1:   46551 atoms
     TI region 2:   46551 atoms
Removing charge of      -0.0609 from atom      43
Total charge of  -0.06094600 removed from       1 atoms

    MBAR - lambda values considered:
       5 total:  0.0000 0.2500 0.5000 0.7500 1.0000
    Extra energies will be computed    500 times.
     Checking for mismatched coordinates.
 Noshake mask :1,2; matches      86 atoms.

--------------------------------------------------------------------------------
   3.  ATOMIC COORDINATES AND VELOCITIES
--------------------------------------------------------------------------------

L1
 begin time read from input coords =    20.000 ps

 Number of triangulated 3-point waters found:    13488
   Removing shake constraints from C23   L1    1 -- H41   L1    1
   Removing shake constraints from C23   L1    1 -- H42   L1    1
   Removing shake constraints from C22   L1    1 -- H39   L1    1
   Removing shake constraints from C22   L1    1 -- H40   L1    1
   Removing shake constraints from C21   L1    1 -- H38   L1    1
   Removing shake constraints from C20   L1    1 -- H37   L1    1
   Removing shake constraints from C13   L1    1 -- H34   L1    1
   Removing shake constraints from C16   L1    1 -- H35   L1    1
   Removing shake constraints from C19   L1    1 -- H36   L1    1
   Removing shake constraints from C10   L1    1 -- H33   L1    1
   Removing shake constraints from C9    L1    1 -- H32   L1    1
   Removing shake constraints from C8    L1    1 -- H31   L1    1
   Removing shake constraints from N5    L1    1 -- H30   L1    1
   Removing shake constraints from N4    L1    1 -- H43   L1    1
   Removing shake constraints from N4    L1    1 -- H29   L1    1
   Removing shake constraints from C1    L1    1 -- H26   L1    1
   Removing shake constraints from C1    L1    1 -- H27   L1    1
   Removing shake constraints from C1    L1    1 -- H28   L1    1
   Removing shake constraints from C23   L1    2 -- H41   L1    2
   Removing shake constraints from C23   L1    2 -- H42   L1    2
   Removing shake constraints from C22   L1    2 -- H39   L1    2
   Removing shake constraints from C22   L1    2 -- H40   L1    2
   Removing shake constraints from C21   L1    2 -- H38   L1    2
   Removing shake constraints from C20   L1    2 -- H37   L1    2
   Removing shake constraints from C13   L1    2 -- H34   L1    2
   Removing shake constraints from C16   L1    2 -- H35   L1    2
   Removing shake constraints from C19   L1    2 -- H36   L1    2
   Removing shake constraints from C10   L1    2 -- H33   L1    2
   Removing shake constraints from C9    L1    2 -- H32   L1    2
   Removing shake constraints from C8    L1    2 -- H31   L1    2
   Removing shake constraints from N5    L1    2 -- H30   L1    2
   Removing shake constraints from N4    L1    2 -- H43   L1    2
   Removing shake constraints from N4    L1    2 -- H29   L1    2
   Removing shake constraints from C1    L1    2 -- H26   L1    2
   Removing shake constraints from C1    L1    2 -- H27   L1    2
   Removing shake constraints from C1    L1    2 -- H28   L1    2
 Number of shake restraints removed:       36

     Sum of charges for TI region  1 =   0.06096676
     Assuming uniform neutralizing plasma

     Sum of charges for TI region  2 =   0.00002076
     Forcing neutrality...

--------------------------------------------------------------------------------
   4.  RESULTS
 NSTEP =     1000   TIME(PS) =      22.000  TEMP(K) =   286.46  PRESS =     0.0
 Etot   =   -116758.4611  EKtot   =     27390.5898  EPtot      =   -144149.0509
 BOND   =      1201.9372  ANGLE   =      2966.8569  DIHED      =      4866.8986
 1-4 NB =      1400.0989  1-4 EEL =     15996.5784  VDWAALS    =     17499.6461
 EELEC  =   -188081.0670  EHBOND  =         0.0000  RESTRAINT  =         0.0000
 EKCMT  =         0.0000  VIRIAL  =         0.0000  VOLUME     =    464510.9821
                                                    Density    =         1.0258
 DV/DL  =        -0.9766
 ------------------------------------------------------------------------------

      A V E R A G E S   O V E R   50000 S T E P S

 NSTEP =    50000   TIME(PS) =     120.000  TEMP(K) =   296.62  PRESS =     0.0
 Etot   =   -111588.8641  EKtot   =     28361.4345  EPtot      =   -139950.2986
 BOND   =      1187.0360  ANGLE   =      3060.2810  DIHED      =      4888.1317
 1-4 NB =      1410.2737  1-4 EEL =     15972.7937  VDWAALS    =     15724.0554
 EELEC  =   -182192.8702  EHBOND  =         0.0000  RESTRAINT  =         0.0000
 EKCMT  =         0.0000  VIRIAL  =         0.0000  VOLUME     =    463029.0437
                                                    Density    =         1.0291
 DV/DL  =        -1.9202
 ------------------------------------------------------------------------------

      R M S  F L U C T U A T I O N S

 NSTEP =    50000   TIME(PS) =     120.000  TEMP(K) =    10.32  PRESS =     0.0
 Etot   =      3086.2887  EKtot   =       987.0533  EPtot      =      2119.7412
 BOND   =        47.8238  ANGLE   =        96.6794  DIHED      =        35.1921
 1-4 NB =        16.5222  1-4 EEL =        43.7763  VDWAALS    =       876.5003
 EELEC  =      2835.5025  EHBOND  =         0.0000  RESTRAINT  =         0.0000
 EKCMT  =         0.0000  VIRIAL  =         0.0000  VOLUME     =      1187.9669
                                                    Density    =         0.0026
 DV/DL  =         0.5060
 ------------------------------------------------------------------------------

      A V E R A G E S   O V E R   50000 S T E P S

 NSTEP =    50000   TIME(PS) =     120.000  TEMP(K) =   296.62  PRESS =     0.0
 Etot   =   -111588.8641  EKtot   =     28361.4345  EPtot      =   -139950.2986
 BOND   =      1187.0360  ANGLE   =      3060.2810  DIHED      =      4888.1317
 1-4 NB =      1410.2737  1-4 EEL =     15972.7937  VDWAALS    =     15724.0554
 EELEC  =   -182192.8702  EHBOND  =         0.0000  RESTRAINT  =         0.0000
 EKCMT  =         0.0000  VIRIAL  =         0.0000  VOLUME     =    463029.0437
                                                    Density    =         1.0291
 DV/DL  =        -1.9202
 ------------------------------------------------------------------------------

      R M S  F L U C T U A T I O N S

 NSTEP =    50000   TIME(PS) =     120.000  TEMP(K) =    10.32  PRESS =     0.0
 Etot   =      3086.2887  EKtot   =       987.0533  EPtot      =      2119.7412
 BOND   =        47.8238  ANGLE   =        96.6794  DIHED      =        35.1921
 1-4 NB =        16.5222  1-4 EEL =        43.7763  VDWAALS    =       876.5003
 EELEC  =      2835.5025  EHBOND  =         0.0000  RESTRAINT  =         0.0000
 EKCMT  =         0.0000  VIRIAL  =         0.0000  VOLUME     =      1187.9669
                                                    Density    =         0.0026
 DV/DL  =         0.5060
 ------------------------------------------------------------------------------

      DV/DL, AVERAGES OVER   50000 STEPS

 NSTEP =    50000   TIME(PS) =     120.000  TEMP(K) =    10.32  PRESS =     0.0
 Etot   =         0.0000  EKtot   =         0.0000  EPtot      =        -1.9011
 BOND   =         0.0000  ANGLE   =         0.0000  DIHED      =         0.0000
 1-4 NB =         0.0000  1-4 EEL =         0.0000  VDWAALS    =         0.0000
 EELEC  =        -0.2426  EHBOND  =         0.0000  RESTRAINT  =         0.0000
 EKCMT  =         0.0000  VIRIAL  =         0.0000  VOLUME     =         0.0000
                                                    Density    =         0.0000
 DV/DL  =        -1.9011
 ------------------------------------------------------------------------------

      A V E R A G E S   O V E R   50000 S T E P S

 NSTEP =   100000   TIME(PS) =     220.000  TEMP(K) =   297.93  PRESS =     0.0
 Etot   =   -111202.3508  EKtot   =     28486.7648  EPtot      =   -139689.1156
 BOND   =      1188.6304  ANGLE   =      3064.3081  DIHED      =      4890.1433
 1-4 NB =      1414.9545  1-4 EEL =     15956.2802  VDWAALS    =     15621.5211
 EELEC  =   -181824.9532  EHBOND  =         0.0000  RESTRAINT  =         0.0000
 EKCMT  =         0.0000  VIRIAL  =         0.0000  VOLUME     =    462410.9321
                                                    Density    =         1.0305
 DV/DL  =        -1.9393
 ------------------------------------------------------------------------------

      R M S  F L U C T U A T I O N S

 NSTEP =   100000   TIME(PS) =     220.000  TEMP(K) =     1.38  PRESS =     0.0
 Etot   =       220.3315  EKtot   =       131.6967  EPtot      =       176.0810
 BOND   =        29.0442  ANGLE   =        41.6046  DIHED      =        25.1197
 1-4 NB =        15.2850  1-4 EEL =        41.5577  VDWAALS    =       182.9460
 EELEC  =       279.0527  EHBOND  =         0.0000  RESTRAINT  =         0.0000
 EKCMT  =         0.0000  VIRIAL  =         0.0000  VOLUME     =       916.2269
                                                    Density    =         0.0020
 DV/DL  =         0.4897
 ------------------------------------------------------------------------------

      A V E R A G E S   O V E R   50000 S T E P S

 NSTEP =   100000   TIME(PS) =     220.000  TEMP(K) =   297.93  PRESS =     0.0
 Etot   =   -111202.3508  EKtot   =     28486.7648  EPtot      =   -139689.1156
 BOND   =      1188.6304  ANGLE   =      3064.3081  DIHED      =      4890.1433
 1-4 NB =      1414.9545  1-4 EEL =     15956.2802  VDWAALS    =     15621.5211
 EELEC  =   -181824.9532  EHBOND  =         0.0000  RESTRAINT  =         0.0000
 EKCMT  =         0.0000  VIRIAL  =         0.0000  VOLUME     =    462410.9321
                                                    Density    =         1.0305
 DV/DL  =        -1.9393
 ------------------------------------------------------------------------------

      R M S  F L U C T U A T I O N S

 NSTEP =   100000   TIME(PS) =     220.000  TEMP(K) =     1.38  PRESS =     0.0
 Etot   =       220.3315  EKtot   =       131.6967  EPtot      =       176.0810
 BOND   =        29.0442  ANGLE   =        41.6046  DIHED      =        25.1197
 1-4 NB =        15.2850  1-4 EEL =        41.5577  VDWAALS    =       182.9460
 EELEC  =       279.0527  EHBOND  =         0.0000  RESTRAINT  =         0.0000
 EKCMT  =         0.0000  VIRIAL  =         0.0000  VOLUME     =       916.2269
                                                    Density    =         0.0020
 DV/DL  =         0.4897
 ------------------------------------------------------------------------------

      DV/DL, AVERAGES OVER   50000 STEPS

 NSTEP =   100000   TIME(PS) =     220.000  TEMP(K) =     1.38  PRESS =     0.0
 Etot   =         0.0000  EKtot   =         0.0000  EPtot      =        -1.9196
 BOND   =         0.0000  ANGLE   =         0.0000  DIHED      =         0.0000
 1-4 NB =         0.0000  1-4 EEL =         0.0000  VDWAALS    =         0.0000
 EELEC  =        -0.2426  EHBOND  =         0.0000  RESTRAINT  =         0.0000
 EKCMT  =         0.0000  VIRIAL  =         0.0000  VOLUME     =         0.0000
                                                    Density    =         0.0000
 DV/DL  =        -1.9196
 ------------------------------------------------------------------------------

      A V E R A G E S   O V E R   50000 S T E P S

 NSTEP =   500000   TIME(PS) =    1020.000  TEMP(K) =   298.00  PRESS =     0.0
 Etot   =   -111172.1587  EKtot   =     28493.4761  EPtot      =   -139665.6348
 BOND   =      1188.3385  ANGLE   =      3065.9457  DIHED      =      4887.8892
 1-4 NB =      1411.0770  1-4 EEL =     15972.7209  VDWAALS    =     15598.3431
 EELEC  =   -181789.9493  EHBOND  =         0.0000  RESTRAINT  =         0.0000
 EKCMT  =         0.0000  VIRIAL  =         0.0000  VOLUME     =    462962.9476
                                                    Density    =         1.0293
 DV/DL  =        -1.9555
 ------------------------------------------------------------------------------

      R M S  F L U C T U A T I O N S

 NSTEP =   500000   TIME(PS) =    1020.000  TEMP(K) =     1.34  PRESS =     0.0
 Etot   =       221.6864  EKtot   =       127.7033  EPtot      =       183.6171
 BOND   =        28.5623  ANGLE   =        41.5839  DIHED      =        23.0671
 1-4 NB =        15.3585  1-4 EEL =        43.8468  VDWAALS    =       186.1336
 EELEC  =       294.0879  EHBOND  =         0.0000  RESTRAINT  =         0.0000
 EKCMT  =         0.0000  VIRIAL  =         0.0000  VOLUME     =       661.1538
                                                    Density    =         0.0015
 DV/DL  =         0.4907
 ------------------------------------------------------------------------------

      A V E R A G E S   O V E R   50000 S T E P S

 NSTEP =   500000   TIME(PS) =    1020.000  TEMP(K) =   298.00  PRESS =     0.0
 Etot   =   -111172.1587  EKtot   =     28493.4761  EPtot      =   -139665.6348
 BOND   =      1188.3385  ANGLE   =      3065.9457  DIHED      =      4887.8892
 1-4 NB =      1411.0770  1-4 EEL =     15972.7209  VDWAALS    =     15598.3431
 EELEC  =   -181789.9493  EHBOND  =         0.0000  RESTRAINT  =         0.0000
 EKCMT  =         0.0000  VIRIAL  =         0.0000  VOLUME     =    462962.9476
                                                    Density    =         1.0293
 DV/DL  =        -1.9555
 ------------------------------------------------------------------------------

      R M S  F L U C T U A T I O N S

 NSTEP =   500000   TIME(PS) =    1020.000  TEMP(K) =     1.34  PRESS =     0.0
 Etot   =       221.6864  EKtot   =       127.7033  EPtot      =       183.6171
 BOND   =        28.5623  ANGLE   =        41.5839  DIHED      =        23.0671
 1-4 NB =        15.3585  1-4 EEL =        43.8468  VDWAALS    =       186.1336
 EELEC  =       294.0879  EHBOND  =         0.0000  RESTRAINT  =         0.0000
 EKCMT  =         0.0000  VIRIAL  =         0.0000  VOLUME     =       661.1538
                                                    Density    =         0.0015
 DV/DL  =         0.4907
 ------------------------------------------------------------------------------

      DV/DL, AVERAGES OVER   50000 STEPS

 NSTEP =   500000   TIME(PS) =    1020.000  TEMP(K) =     1.34  PRESS =     0.0
 Etot   =         0.0000  EKtot   =         0.0000  EPtot      =        -1.9357
 BOND   =         0.0000  ANGLE   =         0.0000  DIHED      =         0.0000
 1-4 NB =         0.0000  1-4 EEL =         0.0000  VDWAALS    =         0.0000
 EELEC  =        -0.2426  EHBOND  =         0.0000  RESTRAINT  =         0.0000
 EKCMT  =         0.0000  VIRIAL  =         0.0000  VOLUME     =         0.0000
                                                    Density    =         0.0000
 DV/DL  =        -1.9357
 ------------------------------------------------------------------------------

      A V E R A G E S   O V E R  500000 S T E P S

 NSTEP =   500000   TIME(PS) =    1020.000  TEMP(K) =   297.79  PRESS =     0.0
 Etot   =   -111231.9570  EKtot   =     28473.8782  EPtot      =   -139705.8352
 BOND   =      1187.8701  ANGLE   =      3065.2449  DIHED      =      4888.3253
 1-4 NB =      1411.7400  1-4 EEL =     15956.2719  VDWAALS    =     15614.9424
 EELEC  =   -181830.2299  EHBOND  =         0.0000  RESTRAINT  =         0.0000
 EKCMT  =         0.0000  VIRIAL  =         0.0000  VOLUME     =    462695.5604
                                                    Density    =         1.0298
 DV/DL  =        -1.9441
 ------------------------------------------------------------------------------

      R M S  F L U C T U A T I O N S

 NSTEP =   500000   TIME(PS) =    1020.000  TEMP(K) =     3.53  PRESS =     0.0
 Etot   =      1005.9160  EKtot   =       337.4619  EPtot      =       697.4307
 BOND   =        31.2844  ANGLE   =        50.1143  DIHED      =        25.5524
 1-4 NB =        15.6085  1-4 EEL =        44.0911  VDWAALS    =       328.1208
 EELEC  =       945.2471  EHBOND  =         0.0000  RESTRAINT  =         0.0000
 EKCMT  =         0.0000  VIRIAL  =         0.0000  VOLUME     =       887.9303
                                                    Density    =         0.0020
 DV/DL  =         0.5023
 ------------------------------------------------------------------------------

      A V E R A G E S   O V E R  500000 S T E P S

 NSTEP =   500000   TIME(PS) =    1020.000  TEMP(K) =   297.79  PRESS =     0.0
 Etot   =   -111231.9570  EKtot   =     28473.8782  EPtot      =   -139705.8352
 BOND   =      1187.8701  ANGLE   =      3065.2449  DIHED      =      4888.3253
 1-4 NB =      1411.7400  1-4 EEL =     15956.2719  VDWAALS    =     15614.9424
 EELEC  =   -181830.2299  EHBOND  =         0.0000  RESTRAINT  =         0.0000
 EKCMT  =         0.0000  VIRIAL  =         0.0000  VOLUME     =    462695.5604
                                                    Density    =         1.0298
 DV/DL  =        -1.9441
 ------------------------------------------------------------------------------

      R M S  F L U C T U A T I O N S

 NSTEP =   500000   TIME(PS) =    1020.000  TEMP(K) =     3.53  PRESS =     0.0
 Etot   =      1005.9160  EKtot   =       337.4619  EPtot      =       697.4307
 BOND   =        31.2844  ANGLE   =        50.1143  DIHED      =        25.5524
 1-4 NB =        15.6085  1-4 EEL =        44.0911  VDWAALS    =       328.1208
 EELEC  =       945.2471  EHBOND  =         0.0000  RESTRAINT  =         0.0000
 EKCMT  =         0.0000  VIRIAL  =         0.0000  VOLUME     =       887.9303
                                                    Density    =         0.0020
 DV/DL  =         0.5023
 ------------------------------------------------------------------------------

      DV/DL, AVERAGES OVER  500000 STEPS

 NSTEP =   500000   TIME(PS) =    1020.000  TEMP(K) =     3.53  PRESS =     0.0
 Etot   =         0.0000  EKtot   =         0.0000  EPtot      =        -1.9246
 BOND   =         0.0000  ANGLE   =         0.0000  DIHED      =         0.0000
 1-4 NB =         0.0000  1-4 EEL =         0.0000  VDWAALS    =         0.0000
 EELEC  =        -0.2426  EHBOND  =         0.0000  RESTRAINT  =         0.0000
 EKCMT  =         0.0000  VIRIAL  =         0.0000  VOLUME     =         0.0000
                                                    Density    =         0.0000
 DV/DL  =        -1.9246
 ------------------------------------------------------------------------------
