-------------------------------------------------------
          Amber 16 PMEMD                              2016
          -------------------------------------------------------

  [-O]verwriting output

File Assignments:

 Here is the input file:

TI/FEP, NpT, vdW+bonded transformation
 &cntrl
 ! please adjust namelist parameters to your needs!

 ! parameters for general MD
 imin = 0, nstlim = 500000, irest = 1, ntx = 5, dt = 0.002,
 ntt = 3, temp0 = 298.0, gamma_ln = 2.0, ig = -1,
 ntb = 2,
 ntp = 1, barostat = 2, pres0 = 1.01325, taup = 2.0,
 ntwe = 1000, ntwx = 10000, ntpr = 1000, ntwr = 50000, ntave = 50000,
 ioutfm = 1, iwrap = 1, ntxo = 2,

 ! parameters for alchemical free energy simulation
 ntc = 2, ntf = 1,
 noshakemask = ':1,2',

 icfe = 1, ifsc = 1, clambda = 0.43738, scalpha = 0.5, scbeta = 12.0,
 ifmbar = 0, bar_intervall = 500, bar_l_min = 0.0, bar_l_max = 1.0,
 bar_l_incr = 0.1,   ! ntpr = bar_intervall for alchemical analysis tool

 timask1=':1', timask2=':2',
scmask1='',
scmask2=':2@C28,O29,C30,H50,H51,H52,H53',
 crgmask = '',
 /
 &ewald
 /

Note: ig = -1. Setting random seed to   353788 based on wallclock time in
      microseconds.

--------------------------------------------------------------------------------
   1.  RESOURCE   USE:
--------------------------------------------------------------------------------

 getting box info from netcdf restart file
 NATOM  =    5979 NTYPES =      16 NBONH =    5922 MBONA  =      59
 NTHETH =      86 MTHETA =      80 NPHIH =     132 MPHIA  =     124
 NHPARM =       0 NPARM  =       0 NNB   =    8319 NRES   =    1962
 NBONA  =      59 NTHETA =      80 NPHIA =     124 NUMBND =      21
 NUMANG =      31 NPTRA  =      21 NATYP =      17 NPHB   =       1
 IFBOX  =       1 NMXRS  =      53 IFCAP =       0 NEXTRA =       0
 NCOPY  =       0

     BOX TYPE: RECTILINEAR

--------------------------------------------------------------------------------
   2.  CONTROL  DATA  FOR  THE  RUN
--------------------------------------------------------------------------------

L0

General flags:
     imin    =       0, nmropt  =       0

Nature and format of input:
     ntx     =       5, irest   =       1, ntrx    =       1

Nature and format of output:
     ntxo    =       2, ntpr    =    1000, ntrx    =       1, ntwr    =   50000
     iwrap   =       1, ntwx    =   10000, ntwv    =       0, ntwe    =    1000
     ioutfm  =       1, ntwprt  =       0, idecomp =       0, rbornstat=      0

Potential function:
     ntf     =       1, ntb     =       2, igb     =       0, nsnb    =      25
     ipol    =       0, gbsa    =       0, iesp    =       0
     dielc   =   1.00000, cut     =   8.00000, intdiel =   1.00000

Frozen or restrained atoms:
     ibelly  =       0, ntr     =       0

Molecular dynamics:
     nstlim  =    500000, nscm    =      1000, nrespa  =         1
     t       =   0.00000, dt      =   0.00200, vlimit  =  -1.00000

Langevin dynamics temperature regulation:
     ig      =  353788
     temp0   = 298.00000, tempi   =   0.00000, gamma_ln=   2.00000

Pressure regulation:
     ntp     =       1
     pres0   =   1.01325, comp    =  44.60000, taup    =   2.00000
     Monte-Carlo Barostat:
     mcbarint  =     100

SHAKE:
     ntc     =       2, jfastw  =       0
     tol     =   0.00001

Free energy options:
     icfe    =       1, ifsc    =       1, klambda =       1
     clambda =  0.4374, scalpha =  0.5000, scbeta  = 12.0000
     sceeorder =       2
     dynlmb =  0.0000 logdvdl =       0

Ewald parameters:
     verbose =       0, ew_type =       0, nbflag  =       1, use_pme =       1
     vdwmeth =       1, eedmeth =       1, netfrc  =       1
     Box X =   40.877   Box Y =   43.011   Box Z =   34.124
     Alpha =   90.000   Beta  =   90.000   Gamma =   90.000
     NFFT1 =   48       NFFT2 =   48       NFFT3 =   36
     Cutoff=    8.000   Tol   =0.100E-04
     Ewald Coefficient =  0.34864
     Interpolation order =    4
     TI Mask 1 :1; matches     46 atoms
     TI Mask 2 :2; matches     53 atoms
     TI region 1:    5926 atoms
     TI region 2:    5933 atoms
     SC Mask 2 :2@C28,O29,C30,H50,H51,H52,H53; matches      7 atoms
 Noshake mask :1,2; matches      99 atoms.

--------------------------------------------------------------------------------
   3.  ATOMIC COORDINATES AND VELOCITIES
--------------------------------------------------------------------------------

L0
 begin time read from input coords =    20.000 ps

     Molecule     1 is partially softcore
     Molecule     2 is partially softcore
 Number of triangulated 3-point waters found:     1960
   Removing shake constraints from C27   L0    1 -- H44   L0    1
   Removing shake constraints from C27   L0    1 -- H45   L0    1
   Removing shake constraints from C27   L0    1 -- H46   L0    1
   Removing shake constraints from C25   L0    1 -- H43   L0    1
   Removing shake constraints from C21   L0    1 -- H42   L0    1
   Removing shake constraints from C20   L0    1 -- H39   L0    1
   Removing shake constraints from C20   L0    1 -- H40   L0    1
   Removing shake constraints from C20   L0    1 -- H41   L0    1
   Removing shake constraints from C16   L0    1 -- H37   L0    1
   Removing shake constraints from C16   L0    1 -- H38   L0    1
   Removing shake constraints from N13   L0    1 -- H36   L0    1
   Removing shake constraints from N9    L0    1 -- H35   L0    1
   Removing shake constraints from N9    L0    1 -- H34   L0    1
   Removing shake constraints from C7    L0    1 -- H33   L0    1
   Removing shake constraints from C2    L0    1 -- H31   L0    1
   Removing shake constraints from C2    L0    1 -- H32   L0    1
   Removing shake constraints from C1    L0    1 -- H28   L0    1
   Removing shake constraints from C1    L0    1 -- H29   L0    1
   Removing shake constraints from C1    L0    1 -- H30   L0    1
   Removing shake constraints from C30   INT   2 -- H52   INT   2
   Removing shake constraints from C30   INT   2 -- H53   INT   2
   Removing shake constraints from C30   INT   2 -- H51   INT   2
   Removing shake constraints from C26   INT   2 -- H47   INT   2
   Removing shake constraints from C26   INT   2 -- H48   INT   2
   Removing shake constraints from C26   INT   2 -- H49   INT   2
   Removing shake constraints from C24   INT   2 -- H46   INT   2
   Removing shake constraints from N27   INT   2 -- H50   INT   2
   Removing shake constraints from C21   INT   2 -- H45   INT   2
   Removing shake constraints from C20   INT   2 -- H42   INT   2
   Removing shake constraints from C20   INT   2 -- H43   INT   2
   Removing shake constraints from C20   INT   2 -- H44   INT   2
   Removing shake constraints from C16   INT   2 -- H40   INT   2
   Removing shake constraints from C16   INT   2 -- H41   INT   2
   Removing shake constraints from N13   INT   2 -- H39   INT   2
   Removing shake constraints from N9    INT   2 -- H38   INT   2
   Removing shake constraints from N9    INT   2 -- H37   INT   2
   Removing shake constraints from C7    INT   2 -- H36   INT   2
   Removing shake constraints from C2    INT   2 -- H34   INT   2
   Removing shake constraints from C2    INT   2 -- H35   INT   2
   Removing shake constraints from C1    INT   2 -- H31   INT   2
   Removing shake constraints from C1    INT   2 -- H32   INT   2
   Removing shake constraints from C1    INT   2 -- H33   INT   2
 WARNING: SHAKEn bond for atoms       69       96 is partially softcore.
 Coordinates for common atoms will be synchronized from V0.
 Consider using noshake mask or disabling SHAKE.

 Number of shake restraints removed in TI region  1 :       19
 Number of shake restraints removed in TI region  2 :       23

     Sum of charges for TI region  1 =   0.00001100
     Forcing neutrality...

     Sum of charges for TI region  2 =   0.00001100
     Forcing neutrality...

--------------------------------------------------------------------------------
   4.  RESULTS
 NSTEP =     1000   TIME(PS) =      22.000  TEMP(K) =   281.84  PRESS =     0.0
 Etot   =    -16211.8213  EKtot   =      3326.5776  EPtot      =    -19538.3990
 BOND   =        35.0006  ANGLE   =        21.7471  DIHED      =        17.9429
 1-4 NB =        12.5117  1-4 EEL =      -633.0607  VDWAALS    =      3083.8947
 EELEC  =    -22076.4353  EHBOND  =         0.0000  RESTRAINT  =         0.0000
 EKCMT  =         0.0000  VIRIAL  =         0.0000  VOLUME     =     60904.8642
                                                    Density    =         0.9746
 DV/DL  =         8.1980
 ------------------------------------------------------------------------------

      A V E R A G E S   O V E R   50000 S T E P S

 NSTEP =    50000   TIME(PS) =     120.000  TEMP(K) =   296.85  PRESS =     0.0
 Etot   =    -15550.0587  EKtot   =      3503.7149  EPtot      =    -19053.7736
 BOND   =        31.6478  ANGLE   =        20.4605  DIHED      =        16.9327
 1-4 NB =        14.9639  1-4 EEL =      -640.6420  VDWAALS    =      2800.2844
 EELEC  =    -21297.4210  EHBOND  =         0.0000  RESTRAINT  =         0.0000
 EKCMT  =         0.0000  VIRIAL  =         0.0000  VOLUME     =     60182.8343
                                                    Density    =         0.9864
 DV/DL  =         2.0793
 ------------------------------------------------------------------------------

      R M S  F L U C T U A T I O N S

 NSTEP =    50000   TIME(PS) =     120.000  TEMP(K) =     9.99  PRESS =     0.0
 Etot   =       391.6582  EKtot   =       117.8841  EPtot      =       283.9156
 BOND   =         3.7475  ANGLE   =         3.6541  DIHED      =         3.2456
 1-4 NB =         1.4412  1-4 EEL =         4.2984  VDWAALS    =       140.6186
 EELEC  =       411.8429  EHBOND  =         0.0000  RESTRAINT  =         0.0000
 EKCMT  =         0.0000  VIRIAL  =         0.0000  VOLUME     =       351.6820
                                                    Density    =         0.0058
 DV/DL  =         9.5532
 ------------------------------------------------------------------------------

      A V E R A G E S   O V E R   50000 S T E P S

 NSTEP =    50000   TIME(PS) =     120.000  TEMP(K) =   296.79  PRESS =     0.0
 Etot   =    -15544.6341  EKtot   =      3509.1395  EPtot      =    -19053.7736
 BOND   =        31.6478  ANGLE   =        20.4605  DIHED      =        16.9327
 1-4 NB =        14.9639  1-4 EEL =      -640.6420  VDWAALS    =      2800.2844
 EELEC  =    -21297.4210  EHBOND  =         0.0000  RESTRAINT  =         0.0000
 EKCMT  =         0.0000  VIRIAL  =         0.0000  VOLUME     =     60182.8343
                                                    Density    =         0.9876
 DV/DL  =         2.0793
 ------------------------------------------------------------------------------

      R M S  F L U C T U A T I O N S

 NSTEP =    50000   TIME(PS) =     120.000  TEMP(K) =     9.99  PRESS =     0.0
 Etot   =       391.8887  EKtot   =       118.1412  EPtot      =       283.9156
 BOND   =         3.7475  ANGLE   =         3.6541  DIHED      =         3.2456
 1-4 NB =         1.4412  1-4 EEL =         4.2984  VDWAALS    =       140.6186
 EELEC  =       411.8429  EHBOND  =         0.0000  RESTRAINT  =         0.0000
 EKCMT  =         0.0000  VIRIAL  =         0.0000  VOLUME     =       351.6820
                                                    Density    =         0.0058
 DV/DL  =         9.5532
 ------------------------------------------------------------------------------

      DV/DL, AVERAGES OVER   50000 STEPS

 NSTEP =    50000   TIME(PS) =     120.000  TEMP(K) =     9.99  PRESS =     0.0
 Etot   =         0.0000  EKtot   =         0.0000  EPtot      =         2.0601
 BOND   =         0.0000  ANGLE   =         0.0000  DIHED      =         0.0000
 1-4 NB =         0.0000  1-4 EEL =         0.0000  VDWAALS    =        -0.3352
 EELEC  =         0.0000  EHBOND  =         0.0000  RESTRAINT  =         0.0000
 EKCMT  =         0.0000  VIRIAL  =         0.0000  VOLUME     =         0.0000
                                                    Density    =         0.0000
 DV/DL  =         2.0601
 ------------------------------------------------------------------------------

      A V E R A G E S   O V E R   50000 S T E P S

 NSTEP =   100000   TIME(PS) =     220.000  TEMP(K) =   298.13  PRESS =     0.0
 Etot   =    -15498.9623  EKtot   =      3518.8295  EPtot      =    -19017.7918
 BOND   =        32.1227  ANGLE   =        20.4683  DIHED      =        17.0442
 1-4 NB =        15.0491  1-4 EEL =      -639.7739  VDWAALS    =      2785.3083
 EELEC  =    -21248.0103  EHBOND  =         0.0000  RESTRAINT  =         0.0000
 EKCMT  =         0.0000  VIRIAL  =         0.0000  VOLUME     =     60038.9226
                                                    Density    =         0.9887
 DV/DL  =         1.9398
 ------------------------------------------------------------------------------

      R M S  F L U C T U A T I O N S

 NSTEP =   100000   TIME(PS) =     220.000  TEMP(K) =     3.93  PRESS =     0.0
 Etot   =        84.9775  EKtot   =        46.3728  EPtot      =        70.6736
 BOND   =         3.8236  ANGLE   =         3.5471  DIHED      =         3.4380
 1-4 NB =         1.4477  1-4 EEL =         4.2503  VDWAALS    =        68.9855
 EELEC  =       111.9629  EHBOND  =         0.0000  RESTRAINT  =         0.0000
 EKCMT  =         0.0000  VIRIAL  =         0.0000  VOLUME     =       362.5629
                                                    Density    =         0.0060
 DV/DL  =         9.8239
 ------------------------------------------------------------------------------

      A V E R A G E S   O V E R   50000 S T E P S

 NSTEP =   100000   TIME(PS) =     220.000  TEMP(K) =   298.07  PRESS =     0.0
 Etot   =    -15493.5149  EKtot   =      3524.2769  EPtot      =    -19017.7918
 BOND   =        32.1227  ANGLE   =        20.4683  DIHED      =        17.0442
 1-4 NB =        15.0491  1-4 EEL =      -639.7739  VDWAALS    =      2785.3083
 EELEC  =    -21248.0103  EHBOND  =         0.0000  RESTRAINT  =         0.0000
 EKCMT  =         0.0000  VIRIAL  =         0.0000  VOLUME     =     60038.9226
                                                    Density    =         0.9899
 DV/DL  =         1.9398
 ------------------------------------------------------------------------------

      R M S  F L U C T U A T I O N S

 NSTEP =   100000   TIME(PS) =     220.000  TEMP(K) =     3.92  PRESS =     0.0
 Etot   =        84.9343  EKtot   =        46.3206  EPtot      =        70.6736
 BOND   =         3.8236  ANGLE   =         3.5471  DIHED      =         3.4380
 1-4 NB =         1.4477  1-4 EEL =         4.2503  VDWAALS    =        68.9855
 EELEC  =       111.9629  EHBOND  =         0.0000  RESTRAINT  =         0.0000
 EKCMT  =         0.0000  VIRIAL  =         0.0000  VOLUME     =       362.5629
                                                    Density    =         0.0060
 DV/DL  =         9.8239
 ------------------------------------------------------------------------------

      DV/DL, AVERAGES OVER   50000 STEPS

 NSTEP =   100000   TIME(PS) =     220.000  TEMP(K) =     3.92  PRESS =     0.0
 Etot   =         0.0000  EKtot   =         0.0000  EPtot      =         1.9236
 BOND   =         0.0000  ANGLE   =         0.0000  DIHED      =         0.0000
 1-4 NB =         0.0000  1-4 EEL =         0.0000  VDWAALS    =        -0.3360
 EELEC  =         0.0000  EHBOND  =         0.0000  RESTRAINT  =         0.0000
 EKCMT  =         0.0000  VIRIAL  =         0.0000  VOLUME     =         0.0000
                                                    Density    =         0.0000
 DV/DL  =         1.9236
 ------------------------------------------------------------------------------

      A V E R A G E S   O V E R   50000 S T E P S

 NSTEP =   500000   TIME(PS) =    1020.000  TEMP(K) =   298.43  PRESS =     0.0
 Etot   =    -15485.0696  EKtot   =      3522.3225  EPtot      =    -19007.3921
 BOND   =        32.4530  ANGLE   =        20.2731  DIHED      =        17.5090
 1-4 NB =        15.1845  1-4 EEL =      -640.1682  VDWAALS    =      2777.2984
 EELEC  =    -21229.9420  EHBOND  =         0.0000  RESTRAINT  =         0.0000
 EKCMT  =         0.0000  VIRIAL  =         0.0000  VOLUME     =     60066.7547
                                                    Density    =         0.9883
 DV/DL  =         2.4694
 ------------------------------------------------------------------------------

      R M S  F L U C T U A T I O N S

 NSTEP =   500000   TIME(PS) =    1020.000  TEMP(K) =     3.96  PRESS =     0.0
 Etot   =        89.1737  EKtot   =        46.6944  EPtot      =        72.6548
 BOND   =         3.9141  ANGLE   =         3.6467  DIHED      =         3.5435
 1-4 NB =         1.4932  1-4 EEL =         4.2948  VDWAALS    =        68.0383
 EELEC  =       113.3406  EHBOND  =         0.0000  RESTRAINT  =         0.0000
 EKCMT  =         0.0000  VIRIAL  =         0.0000  VOLUME     =       361.5142
                                                    Density    =         0.0059
 DV/DL  =         9.8459
 ------------------------------------------------------------------------------

      A V E R A G E S   O V E R   50000 S T E P S

 NSTEP =   500000   TIME(PS) =    1020.000  TEMP(K) =   298.37  PRESS =     0.0
 Etot   =    -15479.5494  EKtot   =      3527.8427  EPtot      =    -19007.3921
 BOND   =        32.4530  ANGLE   =        20.2731  DIHED      =        17.5090
 1-4 NB =        15.1845  1-4 EEL =      -640.1682  VDWAALS    =      2777.2984
 EELEC  =    -21229.9420  EHBOND  =         0.0000  RESTRAINT  =         0.0000
 EKCMT  =         0.0000  VIRIAL  =         0.0000  VOLUME     =     60066.7547
                                                    Density    =         0.9895
 DV/DL  =         2.4694
 ------------------------------------------------------------------------------

      R M S  F L U C T U A T I O N S

 NSTEP =   500000   TIME(PS) =    1020.000  TEMP(K) =     3.95  PRESS =     0.0
 Etot   =        89.1665  EKtot   =        46.7251  EPtot      =        72.6548
 BOND   =         3.9141  ANGLE   =         3.6467  DIHED      =         3.5435
 1-4 NB =         1.4932  1-4 EEL =         4.2948  VDWAALS    =        68.0383
 EELEC  =       113.3406  EHBOND  =         0.0000  RESTRAINT  =         0.0000
 EKCMT  =         0.0000  VIRIAL  =         0.0000  VOLUME     =       361.5142
                                                    Density    =         0.0059
 DV/DL  =         9.8459
 ------------------------------------------------------------------------------

      DV/DL, AVERAGES OVER   50000 STEPS

 NSTEP =   500000   TIME(PS) =    1020.000  TEMP(K) =     3.95  PRESS =     0.0
 Etot   =         0.0000  EKtot   =         0.0000  EPtot      =         2.4458
 BOND   =         0.0000  ANGLE   =         0.0000  DIHED      =         0.0000
 1-4 NB =         0.0000  1-4 EEL =         0.0000  VDWAALS    =        -0.3358
 EELEC  =         0.0000  EHBOND  =         0.0000  RESTRAINT  =         0.0000
 EKCMT  =         0.0000  VIRIAL  =         0.0000  VOLUME     =         0.0000
                                                    Density    =         0.0000
 DV/DL  =         2.4458
 ------------------------------------------------------------------------------

      A V E R A G E S   O V E R  500000 S T E P S

 NSTEP =   500000   TIME(PS) =    1020.000  TEMP(K) =   298.31  PRESS =     0.0
 Etot   =    -15493.1174  EKtot   =      3520.9163  EPtot      =    -19014.0337
 BOND   =        31.9886  ANGLE   =        20.2815  DIHED      =        17.0632
 1-4 NB =        15.1744  1-4 EEL =      -640.0478  VDWAALS    =      2783.7171
 EELEC  =    -21242.2106  EHBOND  =         0.0000  RESTRAINT  =         0.0000
 EKCMT  =         0.0000  VIRIAL  =         0.0000  VOLUME     =     60098.9496
                                                    Density    =         0.9877
 DV/DL  =         2.3838
 ------------------------------------------------------------------------------

      R M S  F L U C T U A T I O N S

 NSTEP =   500000   TIME(PS) =    1020.000  TEMP(K) =     4.88  PRESS =     0.0
 Etot   =       148.0723  EKtot   =        57.5951  EPtot      =       111.7540
 BOND   =         3.8356  ANGLE   =         3.5910  DIHED      =         3.3714
 1-4 NB =         1.4502  1-4 EEL =         4.2968  VDWAALS    =        79.2503
 EELEC  =       168.3117  EHBOND  =         0.0000  RESTRAINT  =         0.0000
 EKCMT  =         0.0000  VIRIAL  =         0.0000  VOLUME     =       366.1629
                                                    Density    =         0.0060
 DV/DL  =         9.8448
 ------------------------------------------------------------------------------

      A V E R A G E S   O V E R  500000 S T E P S

 NSTEP =   500000   TIME(PS) =    1020.000  TEMP(K) =   298.24  PRESS =     0.0
 Etot   =    -15487.6667  EKtot   =      3526.3670  EPtot      =    -19014.0337
 BOND   =        31.9886  ANGLE   =        20.2815  DIHED      =        17.0632
 1-4 NB =        15.1744  1-4 EEL =      -640.0478  VDWAALS    =      2783.7171
 EELEC  =    -21242.2106  EHBOND  =         0.0000  RESTRAINT  =         0.0000
 EKCMT  =         0.0000  VIRIAL  =         0.0000  VOLUME     =     60098.9496
                                                    Density    =         0.9890
 DV/DL  =         2.3838
 ------------------------------------------------------------------------------

      R M S  F L U C T U A T I O N S

 NSTEP =   500000   TIME(PS) =    1020.000  TEMP(K) =     4.88  PRESS =     0.0
 Etot   =       148.1219  EKtot   =        57.6554  EPtot      =       111.7540
 BOND   =         3.8356  ANGLE   =         3.5910  DIHED      =         3.3714
 1-4 NB =         1.4502  1-4 EEL =         4.2968  VDWAALS    =        79.2503
 EELEC  =       168.3117  EHBOND  =         0.0000  RESTRAINT  =         0.0000
 EKCMT  =         0.0000  VIRIAL  =         0.0000  VOLUME     =       366.1629
                                                    Density    =         0.0060
 DV/DL  =         9.8448
 ------------------------------------------------------------------------------

      DV/DL, AVERAGES OVER  500000 STEPS

 NSTEP =   500000   TIME(PS) =    1020.000  TEMP(K) =     4.88  PRESS =     0.0
 Etot   =         0.0000  EKtot   =         0.0000  EPtot      =         2.3601
 BOND   =         0.0000  ANGLE   =         0.0000  DIHED      =         0.0000
 1-4 NB =         0.0000  1-4 EEL =         0.0000  VDWAALS    =        -0.3356
 EELEC  =         0.0000  EHBOND  =         0.0000  RESTRAINT  =         0.0000
 EKCMT  =         0.0000  VIRIAL  =         0.0000  VOLUME     =         0.0000
                                                    Density    =         0.0000
 DV/DL  =         2.3601
 ------------------------------------------------------------------------------
