-------------------------------------------------------
          Amber 16 PMEMD                              2016
          -------------------------------------------------------

  [-O]verwriting output

File Assignments:

 Here is the input file:

TI/FEP, NpT, charge transformation
 &cntrl
 ! please adjust namelist parameters to your needs!

 ! parameters for general MD
 imin = 0, nstlim = 500000, irest = 1, ntx = 5, dt = 0.002,
 ntt = 3, temp0 = 298.0, gamma_ln = 2.0, ig = -1,
 ntb = 2,
 ntp = 1, barostat = 2, pres0 = 1.01325, taup = 2.0,
 ntwe = 1000, ntwx = 10000, ntpr = 1000, ntwr = 50000, ntave = 50000,
 ioutfm = 1, iwrap = 1, ntxo = 2,

 ! parameters for alchemical free energy simulation
 ntc = 2, ntf = 1,
 noshakemask = ':1,2',

 icfe = 1, ifsc = 0, clambda = 1.00, scalpha = 0.5, scbeta = 12.0,
 ifmbar = 0, bar_intervall = 500, bar_l_min = 0.0, bar_l_max = 1.0,
 bar_l_incr = 0.1,   ! ntpr = bar_intervall for alchemical analysis tool

 timask1=':1', timask2=':2',
scmask1='',
scmask2='',
 crgmask = '',
 /
 &ewald
 /

Note: ig = -1. Setting random seed to   305667 based on wallclock time in
      microseconds.

--------------------------------------------------------------------------------
   1.  RESOURCE   USE:
--------------------------------------------------------------------------------

 getting box info from netcdf restart file
 NATOM  =    5986 NTYPES =      15 NBONH =    5926 MBONA  =      62
 NTHETH =      94 MTHETA =      84 NPHIH =     149 MPHIA  =     130
 NHPARM =       0 NPARM  =       0 NNB   =    8354 NRES   =    1962
 NBONA  =      62 NTHETA =      84 NPHIA =     130 NUMBND =      20
 NUMANG =      30 NPTRA  =      21 NATYP =      16 NPHB   =       1
 IFBOX  =       1 NMXRS  =      53 IFCAP =       0 NEXTRA =       0
 NCOPY  =       0

     BOX TYPE: RECTILINEAR

--------------------------------------------------------------------------------
   2.  CONTROL  DATA  FOR  THE  RUN
--------------------------------------------------------------------------------

INT

General flags:
     imin    =       0, nmropt  =       0

Nature and format of input:
     ntx     =       5, irest   =       1, ntrx    =       1

Nature and format of output:
     ntxo    =       2, ntpr    =    1000, ntrx    =       1, ntwr    =   50000
     iwrap   =       1, ntwx    =   10000, ntwv    =       0, ntwe    =    1000
     ioutfm  =       1, ntwprt  =       0, idecomp =       0, rbornstat=      0

Potential function:
     ntf     =       1, ntb     =       2, igb     =       0, nsnb    =      25
     ipol    =       0, gbsa    =       0, iesp    =       0
     dielc   =   1.00000, cut     =   8.00000, intdiel =   1.00000

Frozen or restrained atoms:
     ibelly  =       0, ntr     =       0

Molecular dynamics:
     nstlim  =    500000, nscm    =      1000, nrespa  =         1
     t       =   0.00000, dt      =   0.00200, vlimit  =  -1.00000

Langevin dynamics temperature regulation:
     ig      =  305667
     temp0   = 298.00000, tempi   =   0.00000, gamma_ln=   2.00000

Pressure regulation:
     ntp     =       1
     pres0   =   1.01325, comp    =  44.60000, taup    =   2.00000
     Monte-Carlo Barostat:
     mcbarint  =     100

SHAKE:
     ntc     =       2, jfastw  =       0
     tol     =   0.00001

Free energy options:
     icfe    =       1, ifsc    =       0, klambda =       1
     clambda =  1.0000, scalpha =  0.5000, scbeta  = 12.0000
     sceeorder =       2
     dynlmb =  0.0000 logdvdl =       0

Ewald parameters:
     verbose =       0, ew_type =       0, nbflag  =       1, use_pme =       1
     vdwmeth =       1, eedmeth =       1, netfrc  =       1
     Box X =   40.877   Box Y =   43.011   Box Z =   34.124
     Alpha =   90.000   Beta  =   90.000   Gamma =   90.000
     NFFT1 =   48       NFFT2 =   48       NFFT3 =   36
     Cutoff=    8.000   Tol   =0.100E-04
     Ewald Coefficient =  0.34864
     Interpolation order =    4
     TI Mask 1 :1; matches     53 atoms
     TI Mask 2 :2; matches     53 atoms
     TI region 1:    5933 atoms
     TI region 2:    5933 atoms
     Checking for mismatched coordinates.
 Noshake mask :1,2; matches     106 atoms.

--------------------------------------------------------------------------------
   3.  ATOMIC COORDINATES AND VELOCITIES
--------------------------------------------------------------------------------

INT
 begin time read from input coords =    20.000 ps

 Number of triangulated 3-point waters found:     1960
   Removing shake constraints from C30   INT   1 -- H52   INT   1
   Removing shake constraints from C30   INT   1 -- H53   INT   1
   Removing shake constraints from C30   INT   1 -- H51   INT   1
   Removing shake constraints from C26   INT   1 -- H47   INT   1
   Removing shake constraints from C26   INT   1 -- H48   INT   1
   Removing shake constraints from C26   INT   1 -- H49   INT   1
   Removing shake constraints from C24   INT   1 -- H46   INT   1
   Removing shake constraints from N27   INT   1 -- H50   INT   1
   Removing shake constraints from C21   INT   1 -- H45   INT   1
   Removing shake constraints from C20   INT   1 -- H42   INT   1
   Removing shake constraints from C20   INT   1 -- H43   INT   1
   Removing shake constraints from C20   INT   1 -- H44   INT   1
   Removing shake constraints from C16   INT   1 -- H40   INT   1
   Removing shake constraints from C16   INT   1 -- H41   INT   1
   Removing shake constraints from N13   INT   1 -- H39   INT   1
   Removing shake constraints from N9    INT   1 -- H38   INT   1
   Removing shake constraints from N9    INT   1 -- H37   INT   1
   Removing shake constraints from C7    INT   1 -- H36   INT   1
   Removing shake constraints from C2    INT   1 -- H34   INT   1
   Removing shake constraints from C2    INT   1 -- H35   INT   1
   Removing shake constraints from C1    INT   1 -- H31   INT   1
   Removing shake constraints from C1    INT   1 -- H32   INT   1
   Removing shake constraints from C1    INT   1 -- H33   INT   1
   Removing shake constraints from C30   L1    2 -- H52   L1    2
   Removing shake constraints from C30   L1    2 -- H53   L1    2
   Removing shake constraints from C30   L1    2 -- H51   L1    2
   Removing shake constraints from C26   L1    2 -- H47   L1    2
   Removing shake constraints from C26   L1    2 -- H48   L1    2
   Removing shake constraints from C26   L1    2 -- H49   L1    2
   Removing shake constraints from C24   L1    2 -- H46   L1    2
   Removing shake constraints from N27   L1    2 -- H50   L1    2
   Removing shake constraints from C21   L1    2 -- H45   L1    2
   Removing shake constraints from C20   L1    2 -- H42   L1    2
   Removing shake constraints from C20   L1    2 -- H43   L1    2
   Removing shake constraints from C20   L1    2 -- H44   L1    2
   Removing shake constraints from C16   L1    2 -- H40   L1    2
   Removing shake constraints from C16   L1    2 -- H41   L1    2
   Removing shake constraints from N13   L1    2 -- H39   L1    2
   Removing shake constraints from N9    L1    2 -- H38   L1    2
   Removing shake constraints from N9    L1    2 -- H37   L1    2
   Removing shake constraints from C7    L1    2 -- H36   L1    2
   Removing shake constraints from C2    L1    2 -- H34   L1    2
   Removing shake constraints from C2    L1    2 -- H35   L1    2
   Removing shake constraints from C1    L1    2 -- H31   L1    2
   Removing shake constraints from C1    L1    2 -- H32   L1    2
   Removing shake constraints from C1    L1    2 -- H33   L1    2
 Number of shake restraints removed:       46

     Sum of charges for TI region  1 =   0.00001100
     Forcing neutrality...

     Sum of charges for TI region  2 =  -0.00001000
     Forcing neutrality...

--------------------------------------------------------------------------------
   4.  RESULTS
 NSTEP =     1000   TIME(PS) =      22.000  TEMP(K) =   276.63  PRESS =     0.0
 Etot   =    -16379.4069  EKtot   =      3282.3574  EPtot      =    -19661.7643
 BOND   =        27.6663  ANGLE   =        24.1461  DIHED      =        23.2982
 1-4 NB =        18.6920  1-4 EEL =      -700.3529  VDWAALS    =      3011.3980
 EELEC  =    -22066.6118  EHBOND  =         0.0000  RESTRAINT  =         0.0000
 EKCMT  =         0.0000  VIRIAL  =         0.0000  VOLUME     =     60681.4822
                                                    Density    =         0.9776
 DV/DL  =       -67.7077
 ------------------------------------------------------------------------------

      A V E R A G E S   O V E R   50000 S T E P S

 NSTEP =    50000   TIME(PS) =     120.000  TEMP(K) =   296.49  PRESS =     0.0
 Etot   =    -15589.6967  EKtot   =      3518.0361  EPtot      =    -19107.7327
 BOND   =        21.4086  ANGLE   =        24.6967  DIHED      =        23.4051
 1-4 NB =        15.6592  1-4 EEL =      -692.6023  VDWAALS    =      2795.8070
 EELEC  =    -21296.1070  EHBOND  =         0.0000  RESTRAINT  =         0.0000
 EKCMT  =         0.0000  VIRIAL  =         0.0000  VOLUME     =     60153.8853
                                                    Density    =         0.9862
 DV/DL  =       -73.3054
 ------------------------------------------------------------------------------

      R M S  F L U C T U A T I O N S

 NSTEP =    50000   TIME(PS) =     120.000  TEMP(K) =    10.15  PRESS =     0.0
 Etot   =       393.9922  EKtot   =       120.4360  EPtot      =       283.4261
 BOND   =         4.2096  ANGLE   =         4.0687  DIHED      =         3.8075
 1-4 NB =         1.4366  1-4 EEL =         4.7140  VDWAALS    =       137.2241
 EELEC  =       407.4501  EHBOND  =         0.0000  RESTRAINT  =         0.0000
 EKCMT  =         0.0000  VIRIAL  =         0.0000  VOLUME     =       336.7168
                                                    Density    =         0.0055
 DV/DL  =         4.4081
 ------------------------------------------------------------------------------

      A V E R A G E S   O V E R   50000 S T E P S

 NSTEP =    50000   TIME(PS) =     120.000  TEMP(K) =   296.49  PRESS =     0.0
 Etot   =    -15589.6967  EKtot   =      3518.0361  EPtot      =    -19107.7327
 BOND   =        21.4086  ANGLE   =        24.6967  DIHED      =        23.4051
 1-4 NB =        15.6592  1-4 EEL =      -692.6023  VDWAALS    =      2795.8070
 EELEC  =    -21296.1070  EHBOND  =         0.0000  RESTRAINT  =         0.0000
 EKCMT  =         0.0000  VIRIAL  =         0.0000  VOLUME     =     60153.8853
                                                    Density    =         0.9862
 DV/DL  =       -73.3054
 ------------------------------------------------------------------------------

      R M S  F L U C T U A T I O N S

 NSTEP =    50000   TIME(PS) =     120.000  TEMP(K) =    10.15  PRESS =     0.0
 Etot   =       393.9922  EKtot   =       120.4360  EPtot      =       283.4261
 BOND   =         4.2096  ANGLE   =         4.0687  DIHED      =         3.8075
 1-4 NB =         1.4366  1-4 EEL =         4.7140  VDWAALS    =       137.2241
 EELEC  =       407.4501  EHBOND  =         0.0000  RESTRAINT  =         0.0000
 EKCMT  =         0.0000  VIRIAL  =         0.0000  VOLUME     =       336.7168
                                                    Density    =         0.0055
 DV/DL  =         4.4081
 ------------------------------------------------------------------------------

      DV/DL, AVERAGES OVER   50000 STEPS

 NSTEP =    50000   TIME(PS) =     120.000  TEMP(K) =    10.15  PRESS =     0.0
 Etot   =         0.0000  EKtot   =         0.0000  EPtot      =       -72.5723
 BOND   =         0.0000  ANGLE   =         0.0000  DIHED      =         0.0000
 1-4 NB =         0.0000  1-4 EEL =         0.0000  VDWAALS    =         0.0000
 EELEC  =       -79.8701  EHBOND  =         0.0000  RESTRAINT  =         0.0000
 EKCMT  =         0.0000  VIRIAL  =         0.0000  VOLUME     =         0.0000
                                                    Density    =         0.0000
 DV/DL  =       -72.5723
 ------------------------------------------------------------------------------

      A V E R A G E S   O V E R   50000 S T E P S

 NSTEP =   100000   TIME(PS) =     220.000  TEMP(K) =   297.57  PRESS =     0.0
 Etot   =    -15541.1637  EKtot   =      3530.8743  EPtot      =    -19072.0380
 BOND   =        21.4833  ANGLE   =        23.7558  DIHED      =        22.9870
 1-4 NB =        15.6751  1-4 EEL =      -691.4935  VDWAALS    =      2778.9350
 EELEC  =    -21243.3806  EHBOND  =         0.0000  RESTRAINT  =         0.0000
 EKCMT  =         0.0000  VIRIAL  =         0.0000  VOLUME     =     60086.3826
                                                    Density    =         0.9873
 DV/DL  =       -74.2139
 ------------------------------------------------------------------------------

      R M S  F L U C T U A T I O N S

 NSTEP =   100000   TIME(PS) =     220.000  TEMP(K) =     3.84  PRESS =     0.0
 Etot   =        81.3900  EKtot   =        45.5771  EPtot      =        66.6747
 BOND   =         4.1910  ANGLE   =         3.7552  DIHED      =         3.9333
 1-4 NB =         1.4678  1-4 EEL =         4.4132  VDWAALS    =        70.6188
 EELEC  =       111.8181  EHBOND  =         0.0000  RESTRAINT  =         0.0000
 EKCMT  =         0.0000  VIRIAL  =         0.0000  VOLUME     =       334.0474
                                                    Density    =         0.0055
 DV/DL  =         4.3699
 ------------------------------------------------------------------------------

      A V E R A G E S   O V E R   50000 S T E P S

 NSTEP =   100000   TIME(PS) =     220.000  TEMP(K) =   297.57  PRESS =     0.0
 Etot   =    -15541.1637  EKtot   =      3530.8743  EPtot      =    -19072.0380
 BOND   =        21.4833  ANGLE   =        23.7558  DIHED      =        22.9870
 1-4 NB =        15.6751  1-4 EEL =      -691.4935  VDWAALS    =      2778.9350
 EELEC  =    -21243.3806  EHBOND  =         0.0000  RESTRAINT  =         0.0000
 EKCMT  =         0.0000  VIRIAL  =         0.0000  VOLUME     =     60086.3826
                                                    Density    =         0.9873
 DV/DL  =       -74.2139
 ------------------------------------------------------------------------------

      R M S  F L U C T U A T I O N S

 NSTEP =   100000   TIME(PS) =     220.000  TEMP(K) =     3.84  PRESS =     0.0
 Etot   =        81.3900  EKtot   =        45.5771  EPtot      =        66.6747
 BOND   =         4.1910  ANGLE   =         3.7552  DIHED      =         3.9333
 1-4 NB =         1.4678  1-4 EEL =         4.4132  VDWAALS    =        70.6188
 EELEC  =       111.8181  EHBOND  =         0.0000  RESTRAINT  =         0.0000
 EKCMT  =         0.0000  VIRIAL  =         0.0000  VOLUME     =       334.0474
                                                    Density    =         0.0055
 DV/DL  =         4.3699
 ------------------------------------------------------------------------------

      DV/DL, AVERAGES OVER   50000 STEPS

 NSTEP =   100000   TIME(PS) =     220.000  TEMP(K) =     3.84  PRESS =     0.0
 Etot   =         0.0000  EKtot   =         0.0000  EPtot      =       -73.4697
 BOND   =         0.0000  ANGLE   =         0.0000  DIHED      =         0.0000
 1-4 NB =         0.0000  1-4 EEL =         0.0000  VDWAALS    =         0.0000
 EELEC  =       -79.8701  EHBOND  =         0.0000  RESTRAINT  =         0.0000
 EKCMT  =         0.0000  VIRIAL  =         0.0000  VOLUME     =         0.0000
                                                    Density    =         0.0000
 DV/DL  =       -73.4697
 ------------------------------------------------------------------------------

      A V E R A G E S   O V E R   50000 S T E P S

 NSTEP =   500000   TIME(PS) =    1020.000  TEMP(K) =   297.71  PRESS =     0.0
 Etot   =    -15539.9187  EKtot   =      3532.4838  EPtot      =    -19072.4026
 BOND   =        21.2707  ANGLE   =        23.6501  DIHED      =        22.7512
 1-4 NB =        15.6430  1-4 EEL =      -691.7446  VDWAALS    =      2778.7423
 EELEC  =    -21242.7153  EHBOND  =         0.0000  RESTRAINT  =         0.0000
 EKCMT  =         0.0000  VIRIAL  =         0.0000  VOLUME     =     60035.0875
                                                    Density    =         0.9882
 DV/DL  =       -74.2156
 ------------------------------------------------------------------------------

      R M S  F L U C T U A T I O N S

 NSTEP =   500000   TIME(PS) =    1020.000  TEMP(K) =     3.99  PRESS =     0.0
 Etot   =        83.5815  EKtot   =        47.3676  EPtot      =        66.2821
 BOND   =         4.1932  ANGLE   =         3.8320  DIHED      =         4.0990
 1-4 NB =         1.4952  1-4 EEL =         4.4356  VDWAALS    =        66.4810
 EELEC  =       105.9147  EHBOND  =         0.0000  RESTRAINT  =         0.0000
 EKCMT  =         0.0000  VIRIAL  =         0.0000  VOLUME     =       355.5016
                                                    Density    =         0.0059
 DV/DL  =         4.5564
 ------------------------------------------------------------------------------

      A V E R A G E S   O V E R   50000 S T E P S

 NSTEP =   500000   TIME(PS) =    1020.000  TEMP(K) =   297.71  PRESS =     0.0
 Etot   =    -15539.9187  EKtot   =      3532.4838  EPtot      =    -19072.4026
 BOND   =        21.2707  ANGLE   =        23.6501  DIHED      =        22.7512
 1-4 NB =        15.6430  1-4 EEL =      -691.7446  VDWAALS    =      2778.7423
 EELEC  =    -21242.7153  EHBOND  =         0.0000  RESTRAINT  =         0.0000
 EKCMT  =         0.0000  VIRIAL  =         0.0000  VOLUME     =     60035.0875
                                                    Density    =         0.9882
 DV/DL  =       -74.2156
 ------------------------------------------------------------------------------

      R M S  F L U C T U A T I O N S

 NSTEP =   500000   TIME(PS) =    1020.000  TEMP(K) =     3.99  PRESS =     0.0
 Etot   =        83.5815  EKtot   =        47.3676  EPtot      =        66.2821
 BOND   =         4.1932  ANGLE   =         3.8320  DIHED      =         4.0990
 1-4 NB =         1.4952  1-4 EEL =         4.4356  VDWAALS    =        66.4810
 EELEC  =       105.9147  EHBOND  =         0.0000  RESTRAINT  =         0.0000
 EKCMT  =         0.0000  VIRIAL  =         0.0000  VOLUME     =       355.5016
                                                    Density    =         0.0059
 DV/DL  =         4.5564
 ------------------------------------------------------------------------------

      DV/DL, AVERAGES OVER   50000 STEPS

 NSTEP =   500000   TIME(PS) =    1020.000  TEMP(K) =     3.99  PRESS =     0.0
 Etot   =         0.0000  EKtot   =         0.0000  EPtot      =       -73.4748
 BOND   =         0.0000  ANGLE   =         0.0000  DIHED      =         0.0000
 1-4 NB =         0.0000  1-4 EEL =         0.0000  VDWAALS    =         0.0000
 EELEC  =       -79.8701  EHBOND  =         0.0000  RESTRAINT  =         0.0000
 EKCMT  =         0.0000  VIRIAL  =         0.0000  VOLUME     =         0.0000
                                                    Density    =         0.0000
 DV/DL  =       -73.4748
 ------------------------------------------------------------------------------

      A V E R A G E S   O V E R  500000 S T E P S

 NSTEP =   500000   TIME(PS) =    1020.000  TEMP(K) =   297.42  PRESS =     0.0
 Etot   =    -15549.3429  EKtot   =      3529.0111  EPtot      =    -19078.3540
 BOND   =        21.3237  ANGLE   =        23.8708  DIHED      =        23.0625
 1-4 NB =        15.7079  1-4 EEL =      -691.5248  VDWAALS    =      2782.1505
 EELEC  =    -21252.9447  EHBOND  =         0.0000  RESTRAINT  =         0.0000
 EKCMT  =         0.0000  VIRIAL  =         0.0000  VOLUME     =     60073.0928
                                                    Density    =         0.9876
 DV/DL  =       -73.9280
 ------------------------------------------------------------------------------

      R M S  F L U C T U A T I O N S

 NSTEP =   500000   TIME(PS) =    1020.000  TEMP(K) =     4.87  PRESS =     0.0
 Etot   =       146.5605  EKtot   =        57.7544  EPtot      =       109.9915
 BOND   =         4.0996  ANGLE   =         3.9202  DIHED      =         3.9497
 1-4 NB =         1.4822  1-4 EEL =         4.4781  VDWAALS    =        78.4929
 EELEC  =       165.5469  EHBOND  =         0.0000  RESTRAINT  =         0.0000
 EKCMT  =         0.0000  VIRIAL  =         0.0000  VOLUME     =       353.3645
                                                    Density    =         0.0058
 DV/DL  =         4.4806
 ------------------------------------------------------------------------------

      A V E R A G E S   O V E R  500000 S T E P S

 NSTEP =   500000   TIME(PS) =    1020.000  TEMP(K) =   297.42  PRESS =     0.0
 Etot   =    -15549.3429  EKtot   =      3529.0111  EPtot      =    -19078.3540
 BOND   =        21.3237  ANGLE   =        23.8708  DIHED      =        23.0625
 1-4 NB =        15.7079  1-4 EEL =      -691.5248  VDWAALS    =      2782.1505
 EELEC  =    -21252.9447  EHBOND  =         0.0000  RESTRAINT  =         0.0000
 EKCMT  =         0.0000  VIRIAL  =         0.0000  VOLUME     =     60073.0928
                                                    Density    =         0.9876
 DV/DL  =       -73.9280
 ------------------------------------------------------------------------------

      R M S  F L U C T U A T I O N S

 NSTEP =   500000   TIME(PS) =    1020.000  TEMP(K) =     4.87  PRESS =     0.0
 Etot   =       146.5605  EKtot   =        57.7544  EPtot      =       109.9915
 BOND   =         4.0996  ANGLE   =         3.9202  DIHED      =         3.9497
 1-4 NB =         1.4822  1-4 EEL =         4.4781  VDWAALS    =        78.4929
 EELEC  =       165.5469  EHBOND  =         0.0000  RESTRAINT  =         0.0000
 EKCMT  =         0.0000  VIRIAL  =         0.0000  VOLUME     =       353.3645
                                                    Density    =         0.0058
 DV/DL  =         4.4806
 ------------------------------------------------------------------------------

      DV/DL, AVERAGES OVER  500000 STEPS

 NSTEP =   500000   TIME(PS) =    1020.000  TEMP(K) =     4.87  PRESS =     0.0
 Etot   =         0.0000  EKtot   =         0.0000  EPtot      =       -73.1889
 BOND   =         0.0000  ANGLE   =         0.0000  DIHED      =         0.0000
 1-4 NB =         0.0000  1-4 EEL =         0.0000  VDWAALS    =         0.0000
 EELEC  =       -79.8701  EHBOND  =         0.0000  RESTRAINT  =         0.0000
 EKCMT  =         0.0000  VIRIAL  =         0.0000  VOLUME     =         0.0000
                                                    Density    =         0.0000
 DV/DL  =       -73.1889
 ------------------------------------------------------------------------------
