-------------------------------------------------------
          Amber 16 PMEMD                              2016
          -------------------------------------------------------

  [-O]verwriting output

File Assignments:

 Here is the input file:

TI/FEP, NpT, recharge transformation
 &cntrl
 ! please adjust namelist parameters to your needs!

 ! parameters for general MD
 imin = 0, nstlim = 500000, irest = 1, ntx = 5, dt = 0.002,
 ntt = 3, temp0 = 298.0, gamma_ln = 2.0, ig = -1,
 ntb = 2,
 ntp = 1, barostat = 2, pres0 = 1.01325, taup = 2.0,
 ntwe = 100, ntwx = 10000, ntpr = 1000, ntwr = 50000, ntave = 50000,
 ioutfm = 1, iwrap = 1, ntxo = 2,

 ! parameters for alchemical free energy simulation
 ntc = 2, ntf = 1,
 noshakemask = ':1,2',

 icfe = 1, ifsc = 0, clambda = 0.00, scalpha = 0.5, scbeta = 12.0,
 ifmbar = 1, mbar_lambda = 0.00 0.25 0.50 0.75 1.00,
 mbar_states = 5, bar_intervall = 1000,   ! ntpr = bar_intervall for alchemical

 timask1=':1', timask2=':2',
scmask1='',
scmask2='',
 crgmask = ':1@Cl18',
 /
 &ewald
 /

Note: ig = -1. Setting random seed to   772086 based on wallclock time in
      microseconds.

--------------------------------------------------------------------------------
   1.  RESOURCE   USE:
--------------------------------------------------------------------------------

 getting box info from netcdf restart file
 NATOM  =   46594 NTYPES =      28 NBONH =   43474 MBONA  =    3195
 NTHETH =    6825 MTHETA =    4355 NPHIH =   13976 MPHIA  =   13706
 NHPARM =       0 NPARM  =       0 NNB   =   87745 NRES   =   13889
 NBONA  =    3195 NTHETA =    4355 NPHIA =   13706 NUMBND =      89
 NUMANG =     195 NPTRA  =     203 NATYP =      50 NPHB   =       1
 IFBOX  =       1 NMXRS  =      43 IFCAP =       0 NEXTRA =       0
 NCOPY  =       0

     BOX TYPE: RECTILINEAR

--------------------------------------------------------------------------------
   2.  CONTROL  DATA  FOR  THE  RUN
--------------------------------------------------------------------------------

L1

General flags:
     imin    =       0, nmropt  =       0

Nature and format of input:
     ntx     =       5, irest   =       1, ntrx    =       1

Nature and format of output:
     ntxo    =       2, ntpr    =    1000, ntrx    =       1, ntwr    =   50000
     iwrap   =       1, ntwx    =   10000, ntwv    =       0, ntwe    =     100
     ioutfm  =       1, ntwprt  =       0, idecomp =       0, rbornstat=      0

Potential function:
     ntf     =       1, ntb     =       2, igb     =       0, nsnb    =      25
     ipol    =       0, gbsa    =       0, iesp    =       0
     dielc   =   1.00000, cut     =   8.00000, intdiel =   1.00000

Frozen or restrained atoms:
     ibelly  =       0, ntr     =       0

Molecular dynamics:
     nstlim  =    500000, nscm    =      1000, nrespa  =         1
     t       =   0.00000, dt      =   0.00200, vlimit  =  -1.00000

Langevin dynamics temperature regulation:
     ig      =  772086
     temp0   = 298.00000, tempi   =   0.00000, gamma_ln=   2.00000

Pressure regulation:
     ntp     =       1
     pres0   =   1.01325, comp    =  44.60000, taup    =   2.00000
     Monte-Carlo Barostat:
     mcbarint  =     100

SHAKE:
     ntc     =       2, jfastw  =       0
     tol     =   0.00001

Free energy options:
     icfe    =       1, ifsc    =       0, klambda =       1
     clambda =  0.0000, scalpha =  0.5000, scbeta  = 12.0000
     sceeorder =       2
     dynlmb =  0.0000 logdvdl =       0

FEP MBAR options:
     ifmbar  =       1,  bar_intervall =     1000
     mbar_states =       5

Ewald parameters:
     verbose =       0, ew_type =       0, nbflag  =       1, use_pme =       1
     vdwmeth =       1, eedmeth =       1, netfrc  =       1
     Box X =   87.894   Box Y =   67.207   Box Z =   78.608
     Alpha =   90.000   Beta  =   90.000   Gamma =   90.000
     NFFT1 =   96       NFFT2 =   64       NFFT3 =   80
     Cutoff=    8.000   Tol   =0.100E-04
     Ewald Coefficient =  0.34864
     Interpolation order =    4
     TI Mask 1 :1; matches     43 atoms
     TI Mask 2 :2; matches     43 atoms
     TI region 1:   46551 atoms
     TI region 2:   46551 atoms
Removing charge of      -0.0609 from atom      43
Total charge of  -0.06094600 removed from       1 atoms

    MBAR - lambda values considered:
       5 total:  0.0000 0.2500 0.5000 0.7500 1.0000
    Extra energies will be computed    500 times.
     Checking for mismatched coordinates.
 Noshake mask :1,2; matches      86 atoms.

--------------------------------------------------------------------------------
   3.  ATOMIC COORDINATES AND VELOCITIES
--------------------------------------------------------------------------------

L1
 begin time read from input coords =    20.000 ps

 Number of triangulated 3-point waters found:    13488
   Removing shake constraints from C23   L1    1 -- H41   L1    1
   Removing shake constraints from C23   L1    1 -- H42   L1    1
   Removing shake constraints from C22   L1    1 -- H39   L1    1
   Removing shake constraints from C22   L1    1 -- H40   L1    1
   Removing shake constraints from C21   L1    1 -- H38   L1    1
   Removing shake constraints from C20   L1    1 -- H37   L1    1
   Removing shake constraints from C13   L1    1 -- H34   L1    1
   Removing shake constraints from C16   L1    1 -- H35   L1    1
   Removing shake constraints from C19   L1    1 -- H36   L1    1
   Removing shake constraints from C10   L1    1 -- H33   L1    1
   Removing shake constraints from C9    L1    1 -- H32   L1    1
   Removing shake constraints from C8    L1    1 -- H31   L1    1
   Removing shake constraints from N5    L1    1 -- H30   L1    1
   Removing shake constraints from N4    L1    1 -- H43   L1    1
   Removing shake constraints from N4    L1    1 -- H29   L1    1
   Removing shake constraints from C1    L1    1 -- H26   L1    1
   Removing shake constraints from C1    L1    1 -- H27   L1    1
   Removing shake constraints from C1    L1    1 -- H28   L1    1
   Removing shake constraints from C23   L1    2 -- H41   L1    2
   Removing shake constraints from C23   L1    2 -- H42   L1    2
   Removing shake constraints from C22   L1    2 -- H39   L1    2
   Removing shake constraints from C22   L1    2 -- H40   L1    2
   Removing shake constraints from C21   L1    2 -- H38   L1    2
   Removing shake constraints from C20   L1    2 -- H37   L1    2
   Removing shake constraints from C13   L1    2 -- H34   L1    2
   Removing shake constraints from C16   L1    2 -- H35   L1    2
   Removing shake constraints from C19   L1    2 -- H36   L1    2
   Removing shake constraints from C10   L1    2 -- H33   L1    2
   Removing shake constraints from C9    L1    2 -- H32   L1    2
   Removing shake constraints from C8    L1    2 -- H31   L1    2
   Removing shake constraints from N5    L1    2 -- H30   L1    2
   Removing shake constraints from N4    L1    2 -- H43   L1    2
   Removing shake constraints from N4    L1    2 -- H29   L1    2
   Removing shake constraints from C1    L1    2 -- H26   L1    2
   Removing shake constraints from C1    L1    2 -- H27   L1    2
   Removing shake constraints from C1    L1    2 -- H28   L1    2
 Number of shake restraints removed:       36

     Sum of charges for TI region  1 =   0.06096676
     Assuming uniform neutralizing plasma

     Sum of charges for TI region  2 =   0.00002076
     Forcing neutrality...

--------------------------------------------------------------------------------
   4.  RESULTS
 NSTEP =     1000   TIME(PS) =      22.000  TEMP(K) =   282.09  PRESS =     0.0
 Etot   =   -117066.3340  EKtot   =     26972.6562  EPtot      =   -144038.9903
 BOND   =      1175.6508  ANGLE   =      3103.4736  DIHED      =      4871.0907
 1-4 NB =      1434.3174  1-4 EEL =     16001.8934  VDWAALS    =     17714.8838
 EELEC  =   -188340.2999  EHBOND  =         0.0000  RESTRAINT  =         0.0000
 EKCMT  =         0.0000  VIRIAL  =         0.0000  VOLUME     =    464504.2472
                                                    Density    =         1.0258
 DV/DL  =        -2.3283
 ------------------------------------------------------------------------------

      A V E R A G E S   O V E R   50000 S T E P S

 NSTEP =    50000   TIME(PS) =     120.000  TEMP(K) =   296.71  PRESS =     0.0
 Etot   =   -111618.5672  EKtot   =     28370.5393  EPtot      =   -139989.1066
 BOND   =      1184.0501  ANGLE   =      3061.7367  DIHED      =      4890.1204
 1-4 NB =      1411.1165  1-4 EEL =     15993.9566  VDWAALS    =     15723.6645
 EELEC  =   -182253.7515  EHBOND  =         0.0000  RESTRAINT  =         0.0000
 EKCMT  =         0.0000  VIRIAL  =         0.0000  VOLUME     =    462494.2208
                                                    Density    =         1.0303
 DV/DL  =        -1.5980
 ------------------------------------------------------------------------------

      R M S  F L U C T U A T I O N S

 NSTEP =    50000   TIME(PS) =     120.000  TEMP(K) =    10.37  PRESS =     0.0
 Etot   =      3096.5431  EKtot   =       991.6757  EPtot      =      2125.8858
 BOND   =        48.0834  ANGLE   =        98.2488  DIHED      =        33.4611
 1-4 NB =        16.5426  1-4 EEL =        42.1366  VDWAALS    =       871.5736
 EELEC  =      2831.9423  EHBOND  =         0.0000  RESTRAINT  =         0.0000
 EKCMT  =         0.0000  VIRIAL  =         0.0000  VOLUME     =       969.4940
                                                    Density    =         0.0022
 DV/DL  =         0.4806
 ------------------------------------------------------------------------------

      A V E R A G E S   O V E R   50000 S T E P S

 NSTEP =    50000   TIME(PS) =     120.000  TEMP(K) =   296.71  PRESS =     0.0
 Etot   =   -111618.5672  EKtot   =     28370.5393  EPtot      =   -139989.1066
 BOND   =      1184.0501  ANGLE   =      3061.7367  DIHED      =      4890.1204
 1-4 NB =      1411.1165  1-4 EEL =     15993.9566  VDWAALS    =     15723.6645
 EELEC  =   -182253.7515  EHBOND  =         0.0000  RESTRAINT  =         0.0000
 EKCMT  =         0.0000  VIRIAL  =         0.0000  VOLUME     =    462494.2208
                                                    Density    =         1.0303
 DV/DL  =        -1.5980
 ------------------------------------------------------------------------------

      R M S  F L U C T U A T I O N S

 NSTEP =    50000   TIME(PS) =     120.000  TEMP(K) =    10.37  PRESS =     0.0
 Etot   =      3096.5431  EKtot   =       991.6757  EPtot      =      2125.8858
 BOND   =        48.0834  ANGLE   =        98.2488  DIHED      =        33.4611
 1-4 NB =        16.5426  1-4 EEL =        42.1366  VDWAALS    =       871.5736
 EELEC  =      2831.9423  EHBOND  =         0.0000  RESTRAINT  =         0.0000
 EKCMT  =         0.0000  VIRIAL  =         0.0000  VOLUME     =       969.4940
                                                    Density    =         0.0022
 DV/DL  =         0.4806
 ------------------------------------------------------------------------------

      DV/DL, AVERAGES OVER   50000 STEPS

 NSTEP =    50000   TIME(PS) =     120.000  TEMP(K) =    10.37  PRESS =     0.0
 Etot   =         0.0000  EKtot   =         0.0000  EPtot      =        -1.5818
 BOND   =         0.0000  ANGLE   =         0.0000  DIHED      =         0.0000
 1-4 NB =         0.0000  1-4 EEL =         0.0000  VDWAALS    =         0.0000
 EELEC  =        -0.2426  EHBOND  =         0.0000  RESTRAINT  =         0.0000
 EKCMT  =         0.0000  VIRIAL  =         0.0000  VOLUME     =         0.0000
                                                    Density    =         0.0000
 DV/DL  =        -1.5818
 ------------------------------------------------------------------------------

      A V E R A G E S   O V E R   50000 S T E P S

 NSTEP =   100000   TIME(PS) =     220.000  TEMP(K) =   298.15  PRESS =     0.0
 Etot   =   -111225.9969  EKtot   =     28507.9691  EPtot      =   -139733.9660
 BOND   =      1188.0718  ANGLE   =      3073.1073  DIHED      =      4891.3556
 1-4 NB =      1412.5209  1-4 EEL =     15970.7272  VDWAALS    =     15617.8352
 EELEC  =   -181887.5840  EHBOND  =         0.0000  RESTRAINT  =         0.0000
 EKCMT  =         0.0000  VIRIAL  =         0.0000  VOLUME     =    461130.7442
                                                    Density    =         1.0333
 DV/DL  =        -1.6114
 ------------------------------------------------------------------------------

      R M S  F L U C T U A T I O N S

 NSTEP =   100000   TIME(PS) =     220.000  TEMP(K) =     1.31  PRESS =     0.0
 Etot   =       204.5242  EKtot   =       125.5569  EPtot      =       173.8456
 BOND   =        28.9039  ANGLE   =        41.8259  DIHED      =        23.4308
 1-4 NB =        15.5538  1-4 EEL =        42.4511  VDWAALS    =       194.2756
 EELEC  =       297.5776  EHBOND  =         0.0000  RESTRAINT  =         0.0000
 EKCMT  =         0.0000  VIRIAL  =         0.0000  VOLUME     =      1047.0593
                                                    Density    =         0.0023
 DV/DL  =         0.4829
 ------------------------------------------------------------------------------

      A V E R A G E S   O V E R   50000 S T E P S

 NSTEP =   100000   TIME(PS) =     220.000  TEMP(K) =   298.15  PRESS =     0.0
 Etot   =   -111225.9969  EKtot   =     28507.9691  EPtot      =   -139733.9660
 BOND   =      1188.0718  ANGLE   =      3073.1073  DIHED      =      4891.3556
 1-4 NB =      1412.5209  1-4 EEL =     15970.7272  VDWAALS    =     15617.8352
 EELEC  =   -181887.5840  EHBOND  =         0.0000  RESTRAINT  =         0.0000
 EKCMT  =         0.0000  VIRIAL  =         0.0000  VOLUME     =    461130.7442
                                                    Density    =         1.0333
 DV/DL  =        -1.6114
 ------------------------------------------------------------------------------

      R M S  F L U C T U A T I O N S

 NSTEP =   100000   TIME(PS) =     220.000  TEMP(K) =     1.31  PRESS =     0.0
 Etot   =       204.5242  EKtot   =       125.5569  EPtot      =       173.8456
 BOND   =        28.9039  ANGLE   =        41.8259  DIHED      =        23.4308
 1-4 NB =        15.5538  1-4 EEL =        42.4511  VDWAALS    =       194.2756
 EELEC  =       297.5776  EHBOND  =         0.0000  RESTRAINT  =         0.0000
 EKCMT  =         0.0000  VIRIAL  =         0.0000  VOLUME     =      1047.0593
                                                    Density    =         0.0023
 DV/DL  =         0.4829
 ------------------------------------------------------------------------------

      DV/DL, AVERAGES OVER   50000 STEPS

 NSTEP =   100000   TIME(PS) =     220.000  TEMP(K) =     1.31  PRESS =     0.0
 Etot   =         0.0000  EKtot   =         0.0000  EPtot      =        -1.5952
 BOND   =         0.0000  ANGLE   =         0.0000  DIHED      =         0.0000
 1-4 NB =         0.0000  1-4 EEL =         0.0000  VDWAALS    =         0.0000
 EELEC  =        -0.2426  EHBOND  =         0.0000  RESTRAINT  =         0.0000
 EKCMT  =         0.0000  VIRIAL  =         0.0000  VOLUME     =         0.0000
                                                    Density    =         0.0000
 DV/DL  =        -1.5952
 ------------------------------------------------------------------------------

      A V E R A G E S   O V E R   50000 S T E P S

 NSTEP =   500000   TIME(PS) =    1020.000  TEMP(K) =   297.90  PRESS =     0.0
 Etot   =   -111232.2636  EKtot   =     28484.0161  EPtot      =   -139716.2797
 BOND   =      1190.0646  ANGLE   =      3064.7818  DIHED      =      4884.9394
 1-4 NB =      1412.2516  1-4 EEL =     15996.1089  VDWAALS    =     15609.6183
 EELEC  =   -181874.0443  EHBOND  =         0.0000  RESTRAINT  =         0.0000
 EKCMT  =         0.0000  VIRIAL  =         0.0000  VOLUME     =    462297.2148
                                                    Density    =         1.0307
 DV/DL  =        -1.6262
 ------------------------------------------------------------------------------

      R M S  F L U C T U A T I O N S

 NSTEP =   500000   TIME(PS) =    1020.000  TEMP(K) =     1.30  PRESS =     0.0
 Etot   =       197.6635  EKtot   =       124.0645  EPtot      =       167.6828
 BOND   =        28.7022  ANGLE   =        42.2888  DIHED      =        24.1278
 1-4 NB =        15.1213  1-4 EEL =        42.8927  VDWAALS    =       183.0176
 EELEC  =       270.4821  EHBOND  =         0.0000  RESTRAINT  =         0.0000
 EKCMT  =         0.0000  VIRIAL  =         0.0000  VOLUME     =       885.5371
                                                    Density    =         0.0020
 DV/DL  =         0.5096
 ------------------------------------------------------------------------------

      A V E R A G E S   O V E R   50000 S T E P S

 NSTEP =   500000   TIME(PS) =    1020.000  TEMP(K) =   297.90  PRESS =     0.0
 Etot   =   -111232.2636  EKtot   =     28484.0161  EPtot      =   -139716.2797
 BOND   =      1190.0646  ANGLE   =      3064.7818  DIHED      =      4884.9394
 1-4 NB =      1412.2516  1-4 EEL =     15996.1089  VDWAALS    =     15609.6183
 EELEC  =   -181874.0443  EHBOND  =         0.0000  RESTRAINT  =         0.0000
 EKCMT  =         0.0000  VIRIAL  =         0.0000  VOLUME     =    462297.2148
                                                    Density    =         1.0307
 DV/DL  =        -1.6262
 ------------------------------------------------------------------------------

      R M S  F L U C T U A T I O N S

 NSTEP =   500000   TIME(PS) =    1020.000  TEMP(K) =     1.30  PRESS =     0.0
 Etot   =       197.6635  EKtot   =       124.0645  EPtot      =       167.6828
 BOND   =        28.7022  ANGLE   =        42.2888  DIHED      =        24.1278
 1-4 NB =        15.1213  1-4 EEL =        42.8927  VDWAALS    =       183.0176
 EELEC  =       270.4821  EHBOND  =         0.0000  RESTRAINT  =         0.0000
 EKCMT  =         0.0000  VIRIAL  =         0.0000  VOLUME     =       885.5371
                                                    Density    =         0.0020
 DV/DL  =         0.5096
 ------------------------------------------------------------------------------

      DV/DL, AVERAGES OVER   50000 STEPS

 NSTEP =   500000   TIME(PS) =    1020.000  TEMP(K) =     1.30  PRESS =     0.0
 Etot   =         0.0000  EKtot   =         0.0000  EPtot      =        -1.6097
 BOND   =         0.0000  ANGLE   =         0.0000  DIHED      =         0.0000
 1-4 NB =         0.0000  1-4 EEL =         0.0000  VDWAALS    =         0.0000
 EELEC  =        -0.2426  EHBOND  =         0.0000  RESTRAINT  =         0.0000
 EKCMT  =         0.0000  VIRIAL  =         0.0000  VOLUME     =         0.0000
                                                    Density    =         0.0000
 DV/DL  =        -1.6097
 ------------------------------------------------------------------------------

      A V E R A G E S   O V E R  500000 S T E P S

 NSTEP =   500000   TIME(PS) =    1020.000  TEMP(K) =   297.85  PRESS =     0.0
 Etot   =   -111226.6695  EKtot   =     28479.8954  EPtot      =   -139706.5649
 BOND   =      1189.3176  ANGLE   =      3069.0165  DIHED      =      4886.1410
 1-4 NB =      1411.8896  1-4 EEL =     15990.1433  VDWAALS    =     15617.2481
 EELEC  =   -181870.3210  EHBOND  =         0.0000  RESTRAINT  =         0.0000
 EKCMT  =         0.0000  VIRIAL  =         0.0000  VOLUME     =    462614.6335
                                                    Density    =         1.0300
 DV/DL  =        -1.6076
 ------------------------------------------------------------------------------

      R M S  F L U C T U A T I O N S

 NSTEP =   500000   TIME(PS) =    1020.000  TEMP(K) =     3.54  PRESS =     0.0
 Etot   =      1010.5071  EKtot   =       338.5593  EPtot      =       701.8398
 BOND   =        31.5024  ANGLE   =        50.8577  DIHED      =        25.3409
 1-4 NB =        15.4977  1-4 EEL =        44.7707  VDWAALS    =       328.7278
 EELEC  =       947.3386  EHBOND  =         0.0000  RESTRAINT  =         0.0000
 EKCMT  =         0.0000  VIRIAL  =         0.0000  VOLUME     =      1192.7113
                                                    Density    =         0.0027
 DV/DL  =         0.4920
 ------------------------------------------------------------------------------

      A V E R A G E S   O V E R  500000 S T E P S

 NSTEP =   500000   TIME(PS) =    1020.000  TEMP(K) =   297.85  PRESS =     0.0
 Etot   =   -111226.6695  EKtot   =     28479.8954  EPtot      =   -139706.5649
 BOND   =      1189.3176  ANGLE   =      3069.0165  DIHED      =      4886.1410
 1-4 NB =      1411.8896  1-4 EEL =     15990.1433  VDWAALS    =     15617.2481
 EELEC  =   -181870.3210  EHBOND  =         0.0000  RESTRAINT  =         0.0000
 EKCMT  =         0.0000  VIRIAL  =         0.0000  VOLUME     =    462614.6335
                                                    Density    =         1.0300
 DV/DL  =        -1.6076
 ------------------------------------------------------------------------------

      R M S  F L U C T U A T I O N S

 NSTEP =   500000   TIME(PS) =    1020.000  TEMP(K) =     3.54  PRESS =     0.0
 Etot   =      1010.5071  EKtot   =       338.5593  EPtot      =       701.8398
 BOND   =        31.5024  ANGLE   =        50.8577  DIHED      =        25.3409
 1-4 NB =        15.4977  1-4 EEL =        44.7707  VDWAALS    =       328.7278
 EELEC  =       947.3386  EHBOND  =         0.0000  RESTRAINT  =         0.0000
 EKCMT  =         0.0000  VIRIAL  =         0.0000  VOLUME     =      1192.7113
                                                    Density    =         0.0027
 DV/DL  =         0.4920
 ------------------------------------------------------------------------------

      DV/DL, AVERAGES OVER  500000 STEPS

 NSTEP =   500000   TIME(PS) =    1020.000  TEMP(K) =     3.54  PRESS =     0.0
 Etot   =         0.0000  EKtot   =         0.0000  EPtot      =        -1.5915
 BOND   =         0.0000  ANGLE   =         0.0000  DIHED      =         0.0000
 1-4 NB =         0.0000  1-4 EEL =         0.0000  VDWAALS    =         0.0000
 EELEC  =        -0.2426  EHBOND  =         0.0000  RESTRAINT  =         0.0000
 EKCMT  =         0.0000  VIRIAL  =         0.0000  VOLUME     =         0.0000
                                                    Density    =         0.0000
 DV/DL  =        -1.5915
 ------------------------------------------------------------------------------
