-------------------------------------------------------
          Amber 16 PMEMD                              2016
          -------------------------------------------------------

  [-O]verwriting output

File Assignments:

 Here is the input file:

TI/FEP, NpT, decharge transformation
 &cntrl
 ! please adjust namelist parameters to your needs!

 ! parameters for general MD
 imin = 0, nstlim = 500000, irest = 1, ntx = 5, dt = 0.002,
 ntt = 3, temp0 = 298.0, gamma_ln = 2.0, ig = -1,
 ntb = 2,
 ntp = 1, barostat = 2, pres0 = 1.01325, taup = 2.0,
 ntwe = 100, ntwx = 10000, ntpr = 1000, ntwr = 50000, ntave = 50000,
 ioutfm = 1, iwrap = 1, ntxo = 2,

 ! parameters for alchemical free energy simulation
 ntc = 2, ntf = 1,
 noshakemask = ':1,2',

 icfe = 1, ifsc = 0, clambda = 0.75, scalpha = 0.5, scbeta = 12.0,
 ifmbar = 1, mbar_lambda = 0.00 0.25 0.50 0.75 1.00,
 mbar_states = 5, bar_intervall = 1000,   ! ntpr = bar_intervall for alchemical

 timask1=':1', timask2=':2',
scmask1='',
scmask2='',
 crgmask = ':2@H34',
 /
 &ewald
 /

Note: ig = -1. Setting random seed to   175941 based on wallclock time in
      microseconds.

--------------------------------------------------------------------------------
   1.  RESOURCE   USE:
--------------------------------------------------------------------------------

 getting box info from netcdf restart file
 NATOM  =   46594 NTYPES =      28 NBONH =   43476 MBONA  =    3193
 NTHETH =    6829 MTHETA =    4351 NPHIH =   13982 MPHIA  =   13700
 NHPARM =       0 NPARM  =       0 NNB   =   87745 NRES   =   13889
 NBONA  =    3193 NTHETA =    4351 NPHIA =   13700 NUMBND =      89
 NUMANG =     195 NPTRA  =     203 NATYP =      50 NPHB   =       1
 IFBOX  =       1 NMXRS  =      43 IFCAP =       0 NEXTRA =       0
 NCOPY  =       0

     BOX TYPE: RECTILINEAR

--------------------------------------------------------------------------------
   2.  CONTROL  DATA  FOR  THE  RUN
--------------------------------------------------------------------------------

L0

General flags:
     imin    =       0, nmropt  =       0

Nature and format of input:
     ntx     =       5, irest   =       1, ntrx    =       1

Nature and format of output:
     ntxo    =       2, ntpr    =    1000, ntrx    =       1, ntwr    =   50000
     iwrap   =       1, ntwx    =   10000, ntwv    =       0, ntwe    =     100
     ioutfm  =       1, ntwprt  =       0, idecomp =       0, rbornstat=      0

Potential function:
     ntf     =       1, ntb     =       2, igb     =       0, nsnb    =      25
     ipol    =       0, gbsa    =       0, iesp    =       0
     dielc   =   1.00000, cut     =   8.00000, intdiel =   1.00000

Frozen or restrained atoms:
     ibelly  =       0, ntr     =       0

Molecular dynamics:
     nstlim  =    500000, nscm    =      1000, nrespa  =         1
     t       =   0.00000, dt      =   0.00200, vlimit  =  -1.00000

Langevin dynamics temperature regulation:
     ig      =  175941
     temp0   = 298.00000, tempi   =   0.00000, gamma_ln=   2.00000

Pressure regulation:
     ntp     =       1
     pres0   =   1.01325, comp    =  44.60000, taup    =   2.00000
     Monte-Carlo Barostat:
     mcbarint  =     100

SHAKE:
     ntc     =       2, jfastw  =       0
     tol     =   0.00001

Free energy options:
     icfe    =       1, ifsc    =       0, klambda =       1
     clambda =  0.7500, scalpha =  0.5000, scbeta  = 12.0000
     sceeorder =       2
     dynlmb =  0.0000 logdvdl =       0

FEP MBAR options:
     ifmbar  =       1,  bar_intervall =     1000
     mbar_states =       5

Ewald parameters:
     verbose =       0, ew_type =       0, nbflag  =       1, use_pme =       1
     vdwmeth =       1, eedmeth =       1, netfrc  =       1
     Box X =   87.894   Box Y =   67.207   Box Z =   78.608
     Alpha =   90.000   Beta  =   90.000   Gamma =   90.000
     NFFT1 =   96       NFFT2 =   64       NFFT3 =   80
     Cutoff=    8.000   Tol   =0.100E-04
     Ewald Coefficient =  0.34864
     Interpolation order =    4
     TI Mask 1 :1; matches     43 atoms
     TI Mask 2 :2; matches     43 atoms
     TI region 1:   46551 atoms
     TI region 2:   46551 atoms
Removing charge of       0.1510 from atom      86
Total charge of   0.15104700 removed from       1 atoms

    MBAR - lambda values considered:
       5 total:  0.0000 0.2500 0.5000 0.7500 1.0000
    Extra energies will be computed    500 times.
     Checking for mismatched coordinates.
 Noshake mask :1,2; matches      86 atoms.

--------------------------------------------------------------------------------
   3.  ATOMIC COORDINATES AND VELOCITIES
--------------------------------------------------------------------------------

L0
 begin time read from input coords =    20.000 ps

 Number of triangulated 3-point waters found:    13488
   Removing shake constraints from C22   L0    1 -- H41   L0    1
   Removing shake constraints from C22   L0    1 -- H42   L0    1
   Removing shake constraints from C21   L0    1 -- H39   L0    1
   Removing shake constraints from C21   L0    1 -- H40   L0    1
   Removing shake constraints from C20   L0    1 -- H38   L0    1
   Removing shake constraints from C19   L0    1 -- H37   L0    1
   Removing shake constraints from C18   L0    1 -- H36   L0    1
   Removing shake constraints from C15   L0    1 -- H35   L0    1
   Removing shake constraints from C14   L0    1 -- H34   L0    1
   Removing shake constraints from C13   L0    1 -- H33   L0    1
   Removing shake constraints from C10   L0    1 -- H32   L0    1
   Removing shake constraints from C9    L0    1 -- H31   L0    1
   Removing shake constraints from C8    L0    1 -- H30   L0    1
   Removing shake constraints from N5    L0    1 -- H29   L0    1
   Removing shake constraints from N4    L0    1 -- H43   L0    1
   Removing shake constraints from N4    L0    1 -- H28   L0    1
   Removing shake constraints from C1    L0    1 -- H25   L0    1
   Removing shake constraints from C1    L0    1 -- H26   L0    1
   Removing shake constraints from C1    L0    1 -- H27   L0    1
   Removing shake constraints from C22   L0    2 -- H41   L0    2
   Removing shake constraints from C22   L0    2 -- H42   L0    2
   Removing shake constraints from C21   L0    2 -- H39   L0    2
   Removing shake constraints from C21   L0    2 -- H40   L0    2
   Removing shake constraints from C20   L0    2 -- H38   L0    2
   Removing shake constraints from C19   L0    2 -- H37   L0    2
   Removing shake constraints from C18   L0    2 -- H36   L0    2
   Removing shake constraints from C15   L0    2 -- H35   L0    2
   Removing shake constraints from C14   L0    2 -- H34   L0    2
   Removing shake constraints from C13   L0    2 -- H33   L0    2
   Removing shake constraints from C10   L0    2 -- H32   L0    2
   Removing shake constraints from C9    L0    2 -- H31   L0    2
   Removing shake constraints from C8    L0    2 -- H30   L0    2
   Removing shake constraints from N5    L0    2 -- H29   L0    2
   Removing shake constraints from N4    L0    2 -- H43   L0    2
   Removing shake constraints from N4    L0    2 -- H28   L0    2
   Removing shake constraints from C1    L0    2 -- H25   L0    2
   Removing shake constraints from C1    L0    2 -- H26   L0    2
   Removing shake constraints from C1    L0    2 -- H27   L0    2
 Number of shake restraints removed:       38

     Sum of charges for TI region  1 =   0.00001978
     Forcing neutrality...

     Sum of charges for TI region  2 =  -0.15102723
     Assuming uniform neutralizing plasma

--------------------------------------------------------------------------------
   4.  RESULTS
 NSTEP =     1000   TIME(PS) =      22.000  TEMP(K) =   282.09  PRESS =     0.0
 Etot   =   -117116.2766  EKtot   =     26972.5156  EPtot      =   -144088.7922
 BOND   =      1179.3887  ANGLE   =      3022.8394  DIHED      =      4891.3656
 1-4 NB =      1377.6551  1-4 EEL =     15957.5558  VDWAALS    =     17404.4082
 EELEC  =   -187922.0050  EHBOND  =         0.0000  RESTRAINT  =         0.0000
 EKCMT  =         0.0000  VIRIAL  =         0.0000  VOLUME     =    465239.1092
                                                    Density    =         1.0241
 DV/DL  =        -5.0800
 ------------------------------------------------------------------------------

      A V E R A G E S   O V E R   50000 S T E P S

 NSTEP =    50000   TIME(PS) =     120.000  TEMP(K) =   296.57  PRESS =     0.0
 Etot   =   -111595.1998  EKtot   =     28357.4895  EPtot      =   -139952.6893
 BOND   =      1185.4221  ANGLE   =      3061.2833  DIHED      =      4890.3032
 1-4 NB =      1411.4496  1-4 EEL =     15988.6259  VDWAALS    =     15721.5021
 EELEC  =   -182211.2754  EHBOND  =         0.0000  RESTRAINT  =         0.0000
 EKCMT  =         0.0000  VIRIAL  =         0.0000  VOLUME     =    463124.2692
                                                    Density    =         1.0288
 DV/DL  =        -6.2673
 ------------------------------------------------------------------------------

      R M S  F L U C T U A T I O N S

 NSTEP =    50000   TIME(PS) =     120.000  TEMP(K) =    10.41  PRESS =     0.0
 Etot   =      3111.5176  EKtot   =       995.0242  EPtot      =      2136.9406
 BOND   =        47.7555  ANGLE   =        96.2971  DIHED      =        34.9127
 1-4 NB =        16.9303  1-4 EEL =        43.4064  VDWAALS    =       882.8712
 EELEC  =      2858.3405  EHBOND  =         0.0000  RESTRAINT  =         0.0000
 EKCMT  =         0.0000  VIRIAL  =         0.0000  VOLUME     =      1352.5433
                                                    Density    =         0.0030
 DV/DL  =         1.4092
 ------------------------------------------------------------------------------

      A V E R A G E S   O V E R   50000 S T E P S

 NSTEP =    50000   TIME(PS) =     120.000  TEMP(K) =   296.57  PRESS =     0.0
 Etot   =   -111595.1998  EKtot   =     28357.4895  EPtot      =   -139952.6893
 BOND   =      1185.4221  ANGLE   =      3061.2833  DIHED      =      4890.3032
 1-4 NB =      1411.4496  1-4 EEL =     15988.6259  VDWAALS    =     15721.5021
 EELEC  =   -182211.2754  EHBOND  =         0.0000  RESTRAINT  =         0.0000
 EKCMT  =         0.0000  VIRIAL  =         0.0000  VOLUME     =    463124.2692
                                                    Density    =         1.0288
 DV/DL  =        -6.2673
 ------------------------------------------------------------------------------

      R M S  F L U C T U A T I O N S

 NSTEP =    50000   TIME(PS) =     120.000  TEMP(K) =    10.41  PRESS =     0.0
 Etot   =      3111.5176  EKtot   =       995.0242  EPtot      =      2136.9406
 BOND   =        47.7555  ANGLE   =        96.2971  DIHED      =        34.9127
 1-4 NB =        16.9303  1-4 EEL =        43.4064  VDWAALS    =       882.8712
 EELEC  =      2858.3405  EHBOND  =         0.0000  RESTRAINT  =         0.0000
 EKCMT  =         0.0000  VIRIAL  =         0.0000  VOLUME     =      1352.5433
                                                    Density    =         0.0030
 DV/DL  =         1.4092
 ------------------------------------------------------------------------------

      DV/DL, AVERAGES OVER   50000 STEPS

 NSTEP =    50000   TIME(PS) =     120.000  TEMP(K) =    10.41  PRESS =     0.0
 Etot   =         0.0000  EKtot   =         0.0000  EPtot      =        -6.2049
 BOND   =         0.0000  ANGLE   =         0.0000  DIHED      =         0.0000
 1-4 NB =         0.0000  1-4 EEL =         0.0000  VDWAALS    =         0.0000
 EELEC  =         1.4899  EHBOND  =         0.0000  RESTRAINT  =         0.0000
 EKCMT  =         0.0000  VIRIAL  =         0.0000  VOLUME     =         0.0000
                                                    Density    =         0.0000
 DV/DL  =        -6.2049
 ------------------------------------------------------------------------------

      A V E R A G E S   O V E R   50000 S T E P S

 NSTEP =   100000   TIME(PS) =     220.000  TEMP(K) =   297.98  PRESS =     0.0
 Etot   =   -111164.3532  EKtot   =     28492.0975  EPtot      =   -139656.4507
 BOND   =      1190.5553  ANGLE   =      3069.3864  DIHED      =      4888.2162
 1-4 NB =      1413.5202  1-4 EEL =     15992.2118  VDWAALS    =     15599.1997
 EELEC  =   -181809.5404  EHBOND  =         0.0000  RESTRAINT  =         0.0000
 EKCMT  =         0.0000  VIRIAL  =         0.0000  VOLUME     =    462818.9588
                                                    Density    =         1.0295
 DV/DL  =        -6.1472
 ------------------------------------------------------------------------------

      R M S  F L U C T U A T I O N S

 NSTEP =   100000   TIME(PS) =     220.000  TEMP(K) =     1.32  PRESS =     0.0
 Etot   =       204.1812  EKtot   =       126.3793  EPtot      =       173.3343
 BOND   =        28.8313  ANGLE   =        42.4964  DIHED      =        23.1026
 1-4 NB =        15.6047  1-4 EEL =        42.6024  VDWAALS    =       183.1495
 EELEC  =       275.5563  EHBOND  =         0.0000  RESTRAINT  =         0.0000
 EKCMT  =         0.0000  VIRIAL  =         0.0000  VOLUME     =       959.0122
                                                    Density    =         0.0021
 DV/DL  =         1.3807
 ------------------------------------------------------------------------------

      A V E R A G E S   O V E R   50000 S T E P S

 NSTEP =   100000   TIME(PS) =     220.000  TEMP(K) =   297.98  PRESS =     0.0
 Etot   =   -111164.3532  EKtot   =     28492.0975  EPtot      =   -139656.4507
 BOND   =      1190.5553  ANGLE   =      3069.3864  DIHED      =      4888.2162
 1-4 NB =      1413.5202  1-4 EEL =     15992.2118  VDWAALS    =     15599.1997
 EELEC  =   -181809.5404  EHBOND  =         0.0000  RESTRAINT  =         0.0000
 EKCMT  =         0.0000  VIRIAL  =         0.0000  VOLUME     =    462818.9588
                                                    Density    =         1.0295
 DV/DL  =        -6.1472
 ------------------------------------------------------------------------------

      R M S  F L U C T U A T I O N S

 NSTEP =   100000   TIME(PS) =     220.000  TEMP(K) =     1.32  PRESS =     0.0
 Etot   =       204.1812  EKtot   =       126.3793  EPtot      =       173.3343
 BOND   =        28.8313  ANGLE   =        42.4964  DIHED      =        23.1026
 1-4 NB =        15.6047  1-4 EEL =        42.6024  VDWAALS    =       183.1495
 EELEC  =       275.5563  EHBOND  =         0.0000  RESTRAINT  =         0.0000
 EKCMT  =         0.0000  VIRIAL  =         0.0000  VOLUME     =       959.0122
                                                    Density    =         0.0021
 DV/DL  =         1.3807
 ------------------------------------------------------------------------------

      DV/DL, AVERAGES OVER   50000 STEPS

 NSTEP =   100000   TIME(PS) =     220.000  TEMP(K) =     1.32  PRESS =     0.0
 Etot   =         0.0000  EKtot   =         0.0000  EPtot      =        -6.0859
 BOND   =         0.0000  ANGLE   =         0.0000  DIHED      =         0.0000
 1-4 NB =         0.0000  1-4 EEL =         0.0000  VDWAALS    =         0.0000
 EELEC  =         1.4899  EHBOND  =         0.0000  RESTRAINT  =         0.0000
 EKCMT  =         0.0000  VIRIAL  =         0.0000  VOLUME     =         0.0000
                                                    Density    =         0.0000
 DV/DL  =        -6.0859
 ------------------------------------------------------------------------------

      A V E R A G E S   O V E R   50000 S T E P S

 NSTEP =   500000   TIME(PS) =    1020.000  TEMP(K) =   298.00  PRESS =     0.0
 Etot   =   -111221.6918  EKtot   =     28494.2331  EPtot      =   -139715.9249
 BOND   =      1187.1109  ANGLE   =      3067.5540  DIHED      =      4878.9038
 1-4 NB =      1410.5024  1-4 EEL =     15954.2925  VDWAALS    =     15605.4373
 EELEC  =   -181819.7259  EHBOND  =         0.0000  RESTRAINT  =         0.0000
 EKCMT  =         0.0000  VIRIAL  =         0.0000  VOLUME     =    462285.2268
                                                    Density    =         1.0306
 DV/DL  =        -6.1582
 ------------------------------------------------------------------------------

      R M S  F L U C T U A T I O N S

 NSTEP =   500000   TIME(PS) =    1020.000  TEMP(K) =     1.28  PRESS =     0.0
 Etot   =       217.4547  EKtot   =       122.4762  EPtot      =       184.8815
 BOND   =        28.6356  ANGLE   =        41.9729  DIHED      =        23.3699
 1-4 NB =        15.1848  1-4 EEL =        42.6456  VDWAALS    =       183.6271
 EELEC  =       297.8013  EHBOND  =         0.0000  RESTRAINT  =         0.0000
 EKCMT  =         0.0000  VIRIAL  =         0.0000  VOLUME     =       971.7461
                                                    Density    =         0.0022
 DV/DL  =         1.3798
 ------------------------------------------------------------------------------

      A V E R A G E S   O V E R   50000 S T E P S

 NSTEP =   500000   TIME(PS) =    1020.000  TEMP(K) =   298.00  PRESS =     0.0
 Etot   =   -111221.6918  EKtot   =     28494.2331  EPtot      =   -139715.9249
 BOND   =      1187.1109  ANGLE   =      3067.5540  DIHED      =      4878.9038
 1-4 NB =      1410.5024  1-4 EEL =     15954.2925  VDWAALS    =     15605.4373
 EELEC  =   -181819.7259  EHBOND  =         0.0000  RESTRAINT  =         0.0000
 EKCMT  =         0.0000  VIRIAL  =         0.0000  VOLUME     =    462285.2268
                                                    Density    =         1.0306
 DV/DL  =        -6.1582
 ------------------------------------------------------------------------------

      R M S  F L U C T U A T I O N S

 NSTEP =   500000   TIME(PS) =    1020.000  TEMP(K) =     1.28  PRESS =     0.0
 Etot   =       217.4547  EKtot   =       122.4762  EPtot      =       184.8815
 BOND   =        28.6356  ANGLE   =        41.9729  DIHED      =        23.3699
 1-4 NB =        15.1848  1-4 EEL =        42.6456  VDWAALS    =       183.6271
 EELEC  =       297.8013  EHBOND  =         0.0000  RESTRAINT  =         0.0000
 EKCMT  =         0.0000  VIRIAL  =         0.0000  VOLUME     =       971.7461
                                                    Density    =         0.0022
 DV/DL  =         1.3798
 ------------------------------------------------------------------------------

      DV/DL, AVERAGES OVER   50000 STEPS

 NSTEP =   500000   TIME(PS) =    1020.000  TEMP(K) =     1.28  PRESS =     0.0
 Etot   =         0.0000  EKtot   =         0.0000  EPtot      =        -6.0971
 BOND   =         0.0000  ANGLE   =         0.0000  DIHED      =         0.0000
 1-4 NB =         0.0000  1-4 EEL =         0.0000  VDWAALS    =         0.0000
 EELEC  =         1.4899  EHBOND  =         0.0000  RESTRAINT  =         0.0000
 EKCMT  =         0.0000  VIRIAL  =         0.0000  VOLUME     =         0.0000
                                                    Density    =         0.0000
 DV/DL  =        -6.0971
 ------------------------------------------------------------------------------

      A V E R A G E S   O V E R  500000 S T E P S

 NSTEP =   500000   TIME(PS) =    1020.000  TEMP(K) =   297.83  PRESS =     0.0
 Etot   =   -111218.3064  EKtot   =     28477.7164  EPtot      =   -139696.0228
 BOND   =      1189.0115  ANGLE   =      3068.4570  DIHED      =      4891.1844
 1-4 NB =      1410.5149  1-4 EEL =     15974.8695  VDWAALS    =     15617.9717
 EELEC  =   -181848.0318  EHBOND  =         0.0000  RESTRAINT  =         0.0000
 EKCMT  =         0.0000  VIRIAL  =         0.0000  VOLUME     =    462824.5220
                                                    Density    =         1.0294
 DV/DL  =        -6.0629
 ------------------------------------------------------------------------------

      R M S  F L U C T U A T I O N S

 NSTEP =   500000   TIME(PS) =    1020.000  TEMP(K) =     3.55  PRESS =     0.0
 Etot   =      1015.5257  EKtot   =       339.8784  EPtot      =       704.5072
 BOND   =        31.3560  ANGLE   =        50.4495  DIHED      =        25.8090
 1-4 NB =        15.6631  1-4 EEL =        49.2963  VDWAALS    =       331.0439
 EELEC  =       954.0241  EHBOND  =         0.0000  RESTRAINT  =         0.0000
 EKCMT  =         0.0000  VIRIAL  =         0.0000  VOLUME     =      1051.8290
                                                    Density    =         0.0023
 DV/DL  =         1.4028
 ------------------------------------------------------------------------------

      A V E R A G E S   O V E R  500000 S T E P S

 NSTEP =   500000   TIME(PS) =    1020.000  TEMP(K) =   297.83  PRESS =     0.0
 Etot   =   -111218.3064  EKtot   =     28477.7164  EPtot      =   -139696.0228
 BOND   =      1189.0115  ANGLE   =      3068.4570  DIHED      =      4891.1844
 1-4 NB =      1410.5149  1-4 EEL =     15974.8695  VDWAALS    =     15617.9717
 EELEC  =   -181848.0318  EHBOND  =         0.0000  RESTRAINT  =         0.0000
 EKCMT  =         0.0000  VIRIAL  =         0.0000  VOLUME     =    462824.5220
                                                    Density    =         1.0294
 DV/DL  =        -6.0629
 ------------------------------------------------------------------------------

      R M S  F L U C T U A T I O N S

 NSTEP =   500000   TIME(PS) =    1020.000  TEMP(K) =     3.55  PRESS =     0.0
 Etot   =      1015.5257  EKtot   =       339.8784  EPtot      =       704.5072
 BOND   =        31.3560  ANGLE   =        50.4495  DIHED      =        25.8090
 1-4 NB =        15.6631  1-4 EEL =        49.2963  VDWAALS    =       331.0439
 EELEC  =       954.0241  EHBOND  =         0.0000  RESTRAINT  =         0.0000
 EKCMT  =         0.0000  VIRIAL  =         0.0000  VOLUME     =      1051.8290
                                                    Density    =         0.0023
 DV/DL  =         1.4028
 ------------------------------------------------------------------------------

      DV/DL, AVERAGES OVER  500000 STEPS

 NSTEP =   500000   TIME(PS) =    1020.000  TEMP(K) =     3.55  PRESS =     0.0
 Etot   =         0.0000  EKtot   =         0.0000  EPtot      =        -6.0025
 BOND   =         0.0000  ANGLE   =         0.0000  DIHED      =         0.0000
 1-4 NB =         0.0000  1-4 EEL =         0.0000  VDWAALS    =         0.0000
 EELEC  =         1.4899  EHBOND  =         0.0000  RESTRAINT  =         0.0000
 EKCMT  =         0.0000  VIRIAL  =         0.0000  VOLUME     =         0.0000
                                                    Density    =         0.0000
 DV/DL  =        -6.0025
 ------------------------------------------------------------------------------
