-------------------------------------------------------
          Amber 16 PMEMD                              2016
          -------------------------------------------------------

  [-O]verwriting output

File Assignments:

 Here is the input file:

TI/FEP, NpT, vdW+bonded transformation
 &cntrl
 ! please adjust namelist parameters to your needs!

 ! parameters for general MD
 imin = 0, nstlim = 500000, irest = 1, ntx = 5, dt = 0.002,
 ntt = 3, temp0 = 298.0, gamma_ln = 2.0, ig = -1,
 ntb = 2,
 ntp = 1, barostat = 2, pres0 = 1.01325, taup = 2.0,
 ntwe = 1000, ntwx = 10000, ntpr = 1000, ntwr = 50000, ntave = 50000,
 ioutfm = 1, iwrap = 1, ntxo = 2,

 ! parameters for alchemical free energy simulation
 ntc = 2, ntf = 1,
 noshakemask = ':1,2',

 icfe = 1, ifsc = 1, clambda = 0.68392, scalpha = 0.5, scbeta = 12.0,
 ifmbar = 0, bar_intervall = 500, bar_l_min = 0.0, bar_l_max = 1.0,
 bar_l_incr = 0.1,   ! ntpr = bar_intervall for alchemical analysis tool

 timask1=':1', timask2=':2',
scmask1='',
scmask2=':2@C28,O29,C30,H50,H51,H52,H53',
 crgmask = '',
 /
 &ewald
 /

Note: ig = -1. Setting random seed to   686616 based on wallclock time in
      microseconds.

--------------------------------------------------------------------------------
   1.  RESOURCE   USE:
--------------------------------------------------------------------------------

 getting box info from netcdf restart file
 NATOM  =    5979 NTYPES =      16 NBONH =    5922 MBONA  =      59
 NTHETH =      86 MTHETA =      80 NPHIH =     132 MPHIA  =     124
 NHPARM =       0 NPARM  =       0 NNB   =    8319 NRES   =    1962
 NBONA  =      59 NTHETA =      80 NPHIA =     124 NUMBND =      21
 NUMANG =      31 NPTRA  =      21 NATYP =      17 NPHB   =       1
 IFBOX  =       1 NMXRS  =      53 IFCAP =       0 NEXTRA =       0
 NCOPY  =       0

     BOX TYPE: RECTILINEAR

--------------------------------------------------------------------------------
   2.  CONTROL  DATA  FOR  THE  RUN
--------------------------------------------------------------------------------

L0

General flags:
     imin    =       0, nmropt  =       0

Nature and format of input:
     ntx     =       5, irest   =       1, ntrx    =       1

Nature and format of output:
     ntxo    =       2, ntpr    =    1000, ntrx    =       1, ntwr    =   50000
     iwrap   =       1, ntwx    =   10000, ntwv    =       0, ntwe    =    1000
     ioutfm  =       1, ntwprt  =       0, idecomp =       0, rbornstat=      0

Potential function:
     ntf     =       1, ntb     =       2, igb     =       0, nsnb    =      25
     ipol    =       0, gbsa    =       0, iesp    =       0
     dielc   =   1.00000, cut     =   8.00000, intdiel =   1.00000

Frozen or restrained atoms:
     ibelly  =       0, ntr     =       0

Molecular dynamics:
     nstlim  =    500000, nscm    =      1000, nrespa  =         1
     t       =   0.00000, dt      =   0.00200, vlimit  =  -1.00000

Langevin dynamics temperature regulation:
     ig      =  686616
     temp0   = 298.00000, tempi   =   0.00000, gamma_ln=   2.00000

Pressure regulation:
     ntp     =       1
     pres0   =   1.01325, comp    =  44.60000, taup    =   2.00000
     Monte-Carlo Barostat:
     mcbarint  =     100

SHAKE:
     ntc     =       2, jfastw  =       0
     tol     =   0.00001

Free energy options:
     icfe    =       1, ifsc    =       1, klambda =       1
     clambda =  0.6839, scalpha =  0.5000, scbeta  = 12.0000
     sceeorder =       2
     dynlmb =  0.0000 logdvdl =       0

Ewald parameters:
     verbose =       0, ew_type =       0, nbflag  =       1, use_pme =       1
     vdwmeth =       1, eedmeth =       1, netfrc  =       1
     Box X =   40.877   Box Y =   43.011   Box Z =   34.124
     Alpha =   90.000   Beta  =   90.000   Gamma =   90.000
     NFFT1 =   48       NFFT2 =   48       NFFT3 =   36
     Cutoff=    8.000   Tol   =0.100E-04
     Ewald Coefficient =  0.34864
     Interpolation order =    4
     TI Mask 1 :1; matches     46 atoms
     TI Mask 2 :2; matches     53 atoms
     TI region 1:    5926 atoms
     TI region 2:    5933 atoms
     SC Mask 2 :2@C28,O29,C30,H50,H51,H52,H53; matches      7 atoms
 Noshake mask :1,2; matches      99 atoms.

--------------------------------------------------------------------------------
   3.  ATOMIC COORDINATES AND VELOCITIES
--------------------------------------------------------------------------------

L0
 begin time read from input coords =    20.000 ps

     Molecule     1 is partially softcore
     Molecule     2 is partially softcore
 Number of triangulated 3-point waters found:     1960
   Removing shake constraints from C27   L0    1 -- H44   L0    1
   Removing shake constraints from C27   L0    1 -- H45   L0    1
   Removing shake constraints from C27   L0    1 -- H46   L0    1
   Removing shake constraints from C25   L0    1 -- H43   L0    1
   Removing shake constraints from C21   L0    1 -- H42   L0    1
   Removing shake constraints from C20   L0    1 -- H39   L0    1
   Removing shake constraints from C20   L0    1 -- H40   L0    1
   Removing shake constraints from C20   L0    1 -- H41   L0    1
   Removing shake constraints from C16   L0    1 -- H37   L0    1
   Removing shake constraints from C16   L0    1 -- H38   L0    1
   Removing shake constraints from N13   L0    1 -- H36   L0    1
   Removing shake constraints from N9    L0    1 -- H35   L0    1
   Removing shake constraints from N9    L0    1 -- H34   L0    1
   Removing shake constraints from C7    L0    1 -- H33   L0    1
   Removing shake constraints from C2    L0    1 -- H31   L0    1
   Removing shake constraints from C2    L0    1 -- H32   L0    1
   Removing shake constraints from C1    L0    1 -- H28   L0    1
   Removing shake constraints from C1    L0    1 -- H29   L0    1
   Removing shake constraints from C1    L0    1 -- H30   L0    1
   Removing shake constraints from C30   INT   2 -- H52   INT   2
   Removing shake constraints from C30   INT   2 -- H53   INT   2
   Removing shake constraints from C30   INT   2 -- H51   INT   2
   Removing shake constraints from C26   INT   2 -- H47   INT   2
   Removing shake constraints from C26   INT   2 -- H48   INT   2
   Removing shake constraints from C26   INT   2 -- H49   INT   2
   Removing shake constraints from C24   INT   2 -- H46   INT   2
   Removing shake constraints from N27   INT   2 -- H50   INT   2
   Removing shake constraints from C21   INT   2 -- H45   INT   2
   Removing shake constraints from C20   INT   2 -- H42   INT   2
   Removing shake constraints from C20   INT   2 -- H43   INT   2
   Removing shake constraints from C20   INT   2 -- H44   INT   2
   Removing shake constraints from C16   INT   2 -- H40   INT   2
   Removing shake constraints from C16   INT   2 -- H41   INT   2
   Removing shake constraints from N13   INT   2 -- H39   INT   2
   Removing shake constraints from N9    INT   2 -- H38   INT   2
   Removing shake constraints from N9    INT   2 -- H37   INT   2
   Removing shake constraints from C7    INT   2 -- H36   INT   2
   Removing shake constraints from C2    INT   2 -- H34   INT   2
   Removing shake constraints from C2    INT   2 -- H35   INT   2
   Removing shake constraints from C1    INT   2 -- H31   INT   2
   Removing shake constraints from C1    INT   2 -- H32   INT   2
   Removing shake constraints from C1    INT   2 -- H33   INT   2
 WARNING: SHAKEn bond for atoms       69       96 is partially softcore.
 Coordinates for common atoms will be synchronized from V0.
 Consider using noshake mask or disabling SHAKE.

 Number of shake restraints removed in TI region  1 :       19
 Number of shake restraints removed in TI region  2 :       23

     Sum of charges for TI region  1 =   0.00001100
     Forcing neutrality...

     Sum of charges for TI region  2 =   0.00001100
     Forcing neutrality...

--------------------------------------------------------------------------------
   4.  RESULTS
 NSTEP =     1000   TIME(PS) =      22.000  TEMP(K) =   285.72  PRESS =     0.0
 Etot   =    -16291.8110  EKtot   =      3372.2837  EPtot      =    -19664.0946
 BOND   =        29.3347  ANGLE   =        18.6654  DIHED      =        14.8909
 1-4 NB =        14.4850  1-4 EEL =      -640.9632  VDWAALS    =      3010.6713
 EELEC  =    -22111.1787  EHBOND  =         0.0000  RESTRAINT  =         0.0000
 EKCMT  =         0.0000  VIRIAL  =         0.0000  VOLUME     =     61014.1744
                                                    Density    =         0.9729
 DV/DL  =       -15.3443
 ------------------------------------------------------------------------------

      A V E R A G E S   O V E R   50000 S T E P S

 NSTEP =    50000   TIME(PS) =     120.000  TEMP(K) =   297.23  PRESS =     0.0
 Etot   =    -15556.4055  EKtot   =      3508.1681  EPtot      =    -19064.5736
 BOND   =        28.9727  ANGLE   =        19.8043  DIHED      =        17.0052
 1-4 NB =        15.3559  1-4 EEL =      -640.1247  VDWAALS    =      2803.5732
 EELEC  =    -21309.1602  EHBOND  =         0.0000  RESTRAINT  =         0.0000
 EKCMT  =         0.0000  VIRIAL  =         0.0000  VOLUME     =     59997.1919
                                                    Density    =         0.9894
 DV/DL  =       -19.0116
 ------------------------------------------------------------------------------

      R M S  F L U C T U A T I O N S

 NSTEP =    50000   TIME(PS) =     120.000  TEMP(K) =    10.33  PRESS =     0.0
 Etot   =       404.7772  EKtot   =       121.8770  EPtot      =       292.9000
 BOND   =         3.9770  ANGLE   =         3.4491  DIHED      =         3.3964
 1-4 NB =         1.4292  1-4 EEL =         4.1889  VDWAALS    =       146.5282
 EELEC  =       427.6275  EHBOND  =         0.0000  RESTRAINT  =         0.0000
 EKCMT  =         0.0000  VIRIAL  =         0.0000  VOLUME     =       418.5447
                                                    Density    =         0.0069
 DV/DL  =         8.1101
 ------------------------------------------------------------------------------

      A V E R A G E S   O V E R   50000 S T E P S

 NSTEP =    50000   TIME(PS) =     120.000  TEMP(K) =   297.18  PRESS =     0.0
 Etot   =    -15550.7285  EKtot   =      3513.8452  EPtot      =    -19064.5736
 BOND   =        28.9727  ANGLE   =        19.8043  DIHED      =        17.0052
 1-4 NB =        15.3559  1-4 EEL =      -640.1247  VDWAALS    =      2803.5732
 EELEC  =    -21309.1602  EHBOND  =         0.0000  RESTRAINT  =         0.0000
 EKCMT  =         0.0000  VIRIAL  =         0.0000  VOLUME     =     59997.1919
                                                    Density    =         0.9906
 DV/DL  =       -19.0116
 ------------------------------------------------------------------------------

      R M S  F L U C T U A T I O N S

 NSTEP =    50000   TIME(PS) =     120.000  TEMP(K) =    10.33  PRESS =     0.0
 Etot   =       404.9888  EKtot   =       122.0960  EPtot      =       292.9000
 BOND   =         3.9770  ANGLE   =         3.4491  DIHED      =         3.3964
 1-4 NB =         1.4292  1-4 EEL =         4.1889  VDWAALS    =       146.5282
 EELEC  =       427.6275  EHBOND  =         0.0000  RESTRAINT  =         0.0000
 EKCMT  =         0.0000  VIRIAL  =         0.0000  VOLUME     =       418.5447
                                                    Density    =         0.0069
 DV/DL  =         8.1101
 ------------------------------------------------------------------------------

      DV/DL, AVERAGES OVER   50000 STEPS

 NSTEP =    50000   TIME(PS) =     120.000  TEMP(K) =    10.33  PRESS =     0.0
 Etot   =         0.0000  EKtot   =         0.0000  EPtot      =       -18.8257
 BOND   =         0.0000  ANGLE   =         0.0000  DIHED      =         0.0000
 1-4 NB =         0.0000  1-4 EEL =         0.0000  VDWAALS    =        -0.3362
 EELEC  =         0.0000  EHBOND  =         0.0000  RESTRAINT  =         0.0000
 EKCMT  =         0.0000  VIRIAL  =         0.0000  VOLUME     =         0.0000
                                                    Density    =         0.0000
 DV/DL  =       -18.8257
 ------------------------------------------------------------------------------

      A V E R A G E S   O V E R   50000 S T E P S

 NSTEP =   100000   TIME(PS) =     220.000  TEMP(K) =   297.89  PRESS =     0.0
 Etot   =    -15520.1311  EKtot   =      3515.9455  EPtot      =    -19036.0766
 BOND   =        28.5250  ANGLE   =        20.5576  DIHED      =        17.9048
 1-4 NB =        15.1469  1-4 EEL =      -640.3557  VDWAALS    =      2790.3493
 EELEC  =    -21268.2045  EHBOND  =         0.0000  RESTRAINT  =         0.0000
 EKCMT  =         0.0000  VIRIAL  =         0.0000  VOLUME     =     60045.9815
                                                    Density    =         0.9886
 DV/DL  =       -19.2121
 ------------------------------------------------------------------------------

      R M S  F L U C T U A T I O N S

 NSTEP =   100000   TIME(PS) =     220.000  TEMP(K) =     3.75  PRESS =     0.0
 Etot   =        78.0937  EKtot   =        44.3163  EPtot      =        66.9444
 BOND   =         3.7310  ANGLE   =         3.5991  DIHED      =         3.8091
 1-4 NB =         1.4449  1-4 EEL =         4.4678  VDWAALS    =        69.1318
 EELEC  =       109.5573  EHBOND  =         0.0000  RESTRAINT  =         0.0000
 EKCMT  =         0.0000  VIRIAL  =         0.0000  VOLUME     =       370.8649
                                                    Density    =         0.0061
 DV/DL  =         8.0784
 ------------------------------------------------------------------------------

      A V E R A G E S   O V E R   50000 S T E P S

 NSTEP =   100000   TIME(PS) =     220.000  TEMP(K) =   297.84  PRESS =     0.0
 Etot   =    -15514.4500  EKtot   =      3521.6267  EPtot      =    -19036.0766
 BOND   =        28.5250  ANGLE   =        20.5576  DIHED      =        17.9048
 1-4 NB =        15.1469  1-4 EEL =      -640.3557  VDWAALS    =      2790.3493
 EELEC  =    -21268.2045  EHBOND  =         0.0000  RESTRAINT  =         0.0000
 EKCMT  =         0.0000  VIRIAL  =         0.0000  VOLUME     =     60045.9815
                                                    Density    =         0.9898
 DV/DL  =       -19.2121
 ------------------------------------------------------------------------------

      R M S  F L U C T U A T I O N S

 NSTEP =   100000   TIME(PS) =     220.000  TEMP(K) =     3.76  PRESS =     0.0
 Etot   =        78.1022  EKtot   =        44.3986  EPtot      =        66.9444
 BOND   =         3.7310  ANGLE   =         3.5991  DIHED      =         3.8091
 1-4 NB =         1.4449  1-4 EEL =         4.4678  VDWAALS    =        69.1318
 EELEC  =       109.5573  EHBOND  =         0.0000  RESTRAINT  =         0.0000
 EKCMT  =         0.0000  VIRIAL  =         0.0000  VOLUME     =       370.8649
                                                    Density    =         0.0061
 DV/DL  =         8.0784
 ------------------------------------------------------------------------------

      DV/DL, AVERAGES OVER   50000 STEPS

 NSTEP =   100000   TIME(PS) =     220.000  TEMP(K) =     3.76  PRESS =     0.0
 Etot   =         0.0000  EKtot   =         0.0000  EPtot      =       -19.0196
 BOND   =         0.0000  ANGLE   =         0.0000  DIHED      =         0.0000
 1-4 NB =         0.0000  1-4 EEL =         0.0000  VDWAALS    =        -0.3359
 EELEC  =         0.0000  EHBOND  =         0.0000  RESTRAINT  =         0.0000
 EKCMT  =         0.0000  VIRIAL  =         0.0000  VOLUME     =         0.0000
                                                    Density    =         0.0000
 DV/DL  =       -19.0196
 ------------------------------------------------------------------------------

      A V E R A G E S   O V E R   50000 S T E P S

 NSTEP =   500000   TIME(PS) =    1020.000  TEMP(K) =   298.89  PRESS =     0.0
 Etot   =    -15479.5422  EKtot   =      3527.7822  EPtot      =    -19007.3244
 BOND   =        28.6733  ANGLE   =        20.0577  DIHED      =        17.0818
 1-4 NB =        15.1584  1-4 EEL =      -640.3935  VDWAALS    =      2778.9346
 EELEC  =    -21226.8367  EHBOND  =         0.0000  RESTRAINT  =         0.0000
 EKCMT  =         0.0000  VIRIAL  =         0.0000  VOLUME     =     60075.3856
                                                    Density    =         0.9881
 DV/DL  =       -19.1854
 ------------------------------------------------------------------------------

      R M S  F L U C T U A T I O N S

 NSTEP =   500000   TIME(PS) =    1020.000  TEMP(K) =     3.77  PRESS =     0.0
 Etot   =        78.8781  EKtot   =        44.5163  EPtot      =        65.9828
 BOND   =         3.8113  ANGLE   =         3.4760  DIHED      =         3.4960
 1-4 NB =         1.4127  1-4 EEL =         4.2280  VDWAALS    =        69.1670
 EELEC  =       107.9270  EHBOND  =         0.0000  RESTRAINT  =         0.0000
 EKCMT  =         0.0000  VIRIAL  =         0.0000  VOLUME     =       337.2640
                                                    Density    =         0.0056
 DV/DL  =         7.8336
 ------------------------------------------------------------------------------

      A V E R A G E S   O V E R   50000 S T E P S

 NSTEP =   500000   TIME(PS) =    1020.000  TEMP(K) =   298.84  PRESS =     0.0
 Etot   =    -15473.9343  EKtot   =      3533.3901  EPtot      =    -19007.3244
 BOND   =        28.6733  ANGLE   =        20.0577  DIHED      =        17.0818
 1-4 NB =        15.1584  1-4 EEL =      -640.3935  VDWAALS    =      2778.9346
 EELEC  =    -21226.8367  EHBOND  =         0.0000  RESTRAINT  =         0.0000
 EKCMT  =         0.0000  VIRIAL  =         0.0000  VOLUME     =     60075.3856
                                                    Density    =         0.9893
 DV/DL  =       -19.1854
 ------------------------------------------------------------------------------

      R M S  F L U C T U A T I O N S

 NSTEP =   500000   TIME(PS) =    1020.000  TEMP(K) =     3.77  PRESS =     0.0
 Etot   =        78.9176  EKtot   =        44.5605  EPtot      =        65.9828
 BOND   =         3.8113  ANGLE   =         3.4760  DIHED      =         3.4960
 1-4 NB =         1.4127  1-4 EEL =         4.2280  VDWAALS    =        69.1670
 EELEC  =       107.9270  EHBOND  =         0.0000  RESTRAINT  =         0.0000
 EKCMT  =         0.0000  VIRIAL  =         0.0000  VOLUME     =       337.2640
                                                    Density    =         0.0056
 DV/DL  =         7.8336
 ------------------------------------------------------------------------------

      DV/DL, AVERAGES OVER   50000 STEPS

 NSTEP =   500000   TIME(PS) =    1020.000  TEMP(K) =     3.77  PRESS =     0.0
 Etot   =         0.0000  EKtot   =         0.0000  EPtot      =       -18.9956
 BOND   =         0.0000  ANGLE   =         0.0000  DIHED      =         0.0000
 1-4 NB =         0.0000  1-4 EEL =         0.0000  VDWAALS    =        -0.3358
 EELEC  =         0.0000  EHBOND  =         0.0000  RESTRAINT  =         0.0000
 EKCMT  =         0.0000  VIRIAL  =         0.0000  VOLUME     =         0.0000
                                                    Density    =         0.0000
 DV/DL  =       -18.9956
 ------------------------------------------------------------------------------

      A V E R A G E S   O V E R  500000 S T E P S

 NSTEP =   500000   TIME(PS) =    1020.000  TEMP(K) =   298.41  PRESS =     0.0
 Etot   =    -15497.8243  EKtot   =      3522.0895  EPtot      =    -19019.9138
 BOND   =        28.6664  ANGLE   =        20.1321  DIHED      =        17.2613
 1-4 NB =        15.2365  1-4 EEL =      -640.1935  VDWAALS    =      2785.2878
 EELEC  =    -21246.3045  EHBOND  =         0.0000  RESTRAINT  =         0.0000
 EKCMT  =         0.0000  VIRIAL  =         0.0000  VOLUME     =     60078.3347
                                                    Density    =         0.9881
 DV/DL  =       -19.3574
 ------------------------------------------------------------------------------

      R M S  F L U C T U A T I O N S

 NSTEP =   500000   TIME(PS) =    1020.000  TEMP(K) =     4.93  PRESS =     0.0
 Etot   =       151.2172  EKtot   =        58.1989  EPtot      =       114.1164
 BOND   =         3.8201  ANGLE   =         3.5603  DIHED      =         3.5376
 1-4 NB =         1.4500  1-4 EEL =         4.3139  VDWAALS    =        80.6183
 EELEC  =       172.6306  EHBOND  =         0.0000  RESTRAINT  =         0.0000
 EKCMT  =         0.0000  VIRIAL  =         0.0000  VOLUME     =       374.7319
                                                    Density    =         0.0062
 DV/DL  =         8.0248
 ------------------------------------------------------------------------------

      A V E R A G E S   O V E R  500000 S T E P S

 NSTEP =   500000   TIME(PS) =    1020.000  TEMP(K) =   298.35  PRESS =     0.0
 Etot   =    -15492.2590  EKtot   =      3527.6548  EPtot      =    -19019.9138
 BOND   =        28.6664  ANGLE   =        20.1321  DIHED      =        17.2613
 1-4 NB =        15.2365  1-4 EEL =      -640.1935  VDWAALS    =      2785.2878
 EELEC  =    -21246.3045  EHBOND  =         0.0000  RESTRAINT  =         0.0000
 EKCMT  =         0.0000  VIRIAL  =         0.0000  VOLUME     =     60078.3347
                                                    Density    =         0.9893
 DV/DL  =       -19.3574
 ------------------------------------------------------------------------------

      R M S  F L U C T U A T I O N S

 NSTEP =   500000   TIME(PS) =    1020.000  TEMP(K) =     4.93  PRESS =     0.0
 Etot   =       151.2630  EKtot   =        58.2559  EPtot      =       114.1164
 BOND   =         3.8201  ANGLE   =         3.5603  DIHED      =         3.5376
 1-4 NB =         1.4500  1-4 EEL =         4.3139  VDWAALS    =        80.6183
 EELEC  =       172.6306  EHBOND  =         0.0000  RESTRAINT  =         0.0000
 EKCMT  =         0.0000  VIRIAL  =         0.0000  VOLUME     =       374.7319
                                                    Density    =         0.0062
 DV/DL  =         8.0248
 ------------------------------------------------------------------------------

      DV/DL, AVERAGES OVER  500000 STEPS

 NSTEP =   500000   TIME(PS) =    1020.000  TEMP(K) =     4.93  PRESS =     0.0
 Etot   =         0.0000  EKtot   =         0.0000  EPtot      =       -19.1645
 BOND   =         0.0000  ANGLE   =         0.0000  DIHED      =         0.0000
 1-4 NB =         0.0000  1-4 EEL =         0.0000  VDWAALS    =        -0.3358
 EELEC  =         0.0000  EHBOND  =         0.0000  RESTRAINT  =         0.0000
 EKCMT  =         0.0000  VIRIAL  =         0.0000  VOLUME     =         0.0000
                                                    Density    =         0.0000
 DV/DL  =       -19.1645
 ------------------------------------------------------------------------------
