-------------------------------------------------------
          Amber 16 PMEMD                              2016
          -------------------------------------------------------

  [-O]verwriting output

File Assignments:

 Here is the input file:

TI/FEP, NpT, vdW+bonded transformation
 &cntrl
 ! please adjust namelist parameters to your needs!

 ! parameters for general MD
 imin = 0, nstlim = 500000, irest = 1, ntx = 5, dt = 0.002,
 ntt = 3, temp0 = 298.0, gamma_ln = 2.0, ig = -1,
 ntb = 2,
 ntp = 1, barostat = 2, pres0 = 1.01325, taup = 2.0,
 ntwe = 1000, ntwx = 10000, ntpr = 1000, ntwr = 50000, ntave = 50000,
 ioutfm = 1, iwrap = 1, ntxo = 2,

 ! parameters for alchemical free energy simulation
 ntc = 2, ntf = 1,
 noshakemask = ':1,2',

 icfe = 1, ifsc = 1, clambda = 0.04794, scalpha = 0.5, scbeta = 12.0,
 ifmbar = 0, bar_intervall = 500, bar_l_min = 0.0, bar_l_max = 1.0,
 bar_l_incr = 0.1,   ! ntpr = bar_intervall for alchemical analysis tool

 timask1=':1', timask2=':2',
scmask1='',
scmask2=':2@C28,O29,C30,H50,H51,H52,H53',
 crgmask = '',
 /
 &ewald
 /

Note: ig = -1. Setting random seed to    36146 based on wallclock time in
      microseconds.

--------------------------------------------------------------------------------
   1.  RESOURCE   USE:
--------------------------------------------------------------------------------

 getting box info from netcdf restart file
 NATOM  =    5979 NTYPES =      16 NBONH =    5922 MBONA  =      59
 NTHETH =      86 MTHETA =      80 NPHIH =     132 MPHIA  =     124
 NHPARM =       0 NPARM  =       0 NNB   =    8319 NRES   =    1962
 NBONA  =      59 NTHETA =      80 NPHIA =     124 NUMBND =      21
 NUMANG =      31 NPTRA  =      21 NATYP =      17 NPHB   =       1
 IFBOX  =       1 NMXRS  =      53 IFCAP =       0 NEXTRA =       0
 NCOPY  =       0

     BOX TYPE: RECTILINEAR

--------------------------------------------------------------------------------
   2.  CONTROL  DATA  FOR  THE  RUN
--------------------------------------------------------------------------------

L0

General flags:
     imin    =       0, nmropt  =       0

Nature and format of input:
     ntx     =       5, irest   =       1, ntrx    =       1

Nature and format of output:
     ntxo    =       2, ntpr    =    1000, ntrx    =       1, ntwr    =   50000
     iwrap   =       1, ntwx    =   10000, ntwv    =       0, ntwe    =    1000
     ioutfm  =       1, ntwprt  =       0, idecomp =       0, rbornstat=      0

Potential function:
     ntf     =       1, ntb     =       2, igb     =       0, nsnb    =      25
     ipol    =       0, gbsa    =       0, iesp    =       0
     dielc   =   1.00000, cut     =   8.00000, intdiel =   1.00000

Frozen or restrained atoms:
     ibelly  =       0, ntr     =       0

Molecular dynamics:
     nstlim  =    500000, nscm    =      1000, nrespa  =         1
     t       =   0.00000, dt      =   0.00200, vlimit  =  -1.00000

Langevin dynamics temperature regulation:
     ig      =   36146
     temp0   = 298.00000, tempi   =   0.00000, gamma_ln=   2.00000

Pressure regulation:
     ntp     =       1
     pres0   =   1.01325, comp    =  44.60000, taup    =   2.00000
     Monte-Carlo Barostat:
     mcbarint  =     100

SHAKE:
     ntc     =       2, jfastw  =       0
     tol     =   0.00001

Free energy options:
     icfe    =       1, ifsc    =       1, klambda =       1
     clambda =  0.0479, scalpha =  0.5000, scbeta  = 12.0000
     sceeorder =       2
     dynlmb =  0.0000 logdvdl =       0

Ewald parameters:
     verbose =       0, ew_type =       0, nbflag  =       1, use_pme =       1
     vdwmeth =       1, eedmeth =       1, netfrc  =       1
     Box X =   40.877   Box Y =   43.011   Box Z =   34.124
     Alpha =   90.000   Beta  =   90.000   Gamma =   90.000
     NFFT1 =   48       NFFT2 =   48       NFFT3 =   36
     Cutoff=    8.000   Tol   =0.100E-04
     Ewald Coefficient =  0.34864
     Interpolation order =    4
     TI Mask 1 :1; matches     46 atoms
     TI Mask 2 :2; matches     53 atoms
     TI region 1:    5926 atoms
     TI region 2:    5933 atoms
     SC Mask 2 :2@C28,O29,C30,H50,H51,H52,H53; matches      7 atoms
 Noshake mask :1,2; matches      99 atoms.

--------------------------------------------------------------------------------
   3.  ATOMIC COORDINATES AND VELOCITIES
--------------------------------------------------------------------------------

L0
 begin time read from input coords =    20.000 ps

     Molecule     1 is partially softcore
     Molecule     2 is partially softcore
 Number of triangulated 3-point waters found:     1960
   Removing shake constraints from C27   L0    1 -- H44   L0    1
   Removing shake constraints from C27   L0    1 -- H45   L0    1
   Removing shake constraints from C27   L0    1 -- H46   L0    1
   Removing shake constraints from C25   L0    1 -- H43   L0    1
   Removing shake constraints from C21   L0    1 -- H42   L0    1
   Removing shake constraints from C20   L0    1 -- H39   L0    1
   Removing shake constraints from C20   L0    1 -- H40   L0    1
   Removing shake constraints from C20   L0    1 -- H41   L0    1
   Removing shake constraints from C16   L0    1 -- H37   L0    1
   Removing shake constraints from C16   L0    1 -- H38   L0    1
   Removing shake constraints from N13   L0    1 -- H36   L0    1
   Removing shake constraints from N9    L0    1 -- H35   L0    1
   Removing shake constraints from N9    L0    1 -- H34   L0    1
   Removing shake constraints from C7    L0    1 -- H33   L0    1
   Removing shake constraints from C2    L0    1 -- H31   L0    1
   Removing shake constraints from C2    L0    1 -- H32   L0    1
   Removing shake constraints from C1    L0    1 -- H28   L0    1
   Removing shake constraints from C1    L0    1 -- H29   L0    1
   Removing shake constraints from C1    L0    1 -- H30   L0    1
   Removing shake constraints from C30   INT   2 -- H52   INT   2
   Removing shake constraints from C30   INT   2 -- H53   INT   2
   Removing shake constraints from C30   INT   2 -- H51   INT   2
   Removing shake constraints from C26   INT   2 -- H47   INT   2
   Removing shake constraints from C26   INT   2 -- H48   INT   2
   Removing shake constraints from C26   INT   2 -- H49   INT   2
   Removing shake constraints from C24   INT   2 -- H46   INT   2
   Removing shake constraints from N27   INT   2 -- H50   INT   2
   Removing shake constraints from C21   INT   2 -- H45   INT   2
   Removing shake constraints from C20   INT   2 -- H42   INT   2
   Removing shake constraints from C20   INT   2 -- H43   INT   2
   Removing shake constraints from C20   INT   2 -- H44   INT   2
   Removing shake constraints from C16   INT   2 -- H40   INT   2
   Removing shake constraints from C16   INT   2 -- H41   INT   2
   Removing shake constraints from N13   INT   2 -- H39   INT   2
   Removing shake constraints from N9    INT   2 -- H38   INT   2
   Removing shake constraints from N9    INT   2 -- H37   INT   2
   Removing shake constraints from C7    INT   2 -- H36   INT   2
   Removing shake constraints from C2    INT   2 -- H34   INT   2
   Removing shake constraints from C2    INT   2 -- H35   INT   2
   Removing shake constraints from C1    INT   2 -- H31   INT   2
   Removing shake constraints from C1    INT   2 -- H32   INT   2
   Removing shake constraints from C1    INT   2 -- H33   INT   2
 WARNING: SHAKEn bond for atoms       69       96 is partially softcore.
 Coordinates for common atoms will be synchronized from V0.
 Consider using noshake mask or disabling SHAKE.

 Number of shake restraints removed in TI region  1 :       19
 Number of shake restraints removed in TI region  2 :       23

     Sum of charges for TI region  1 =   0.00001100
     Forcing neutrality...

     Sum of charges for TI region  2 =   0.00001100
     Forcing neutrality...

--------------------------------------------------------------------------------
   4.  RESULTS
 NSTEP =     1000   TIME(PS) =      22.000  TEMP(K) =   282.38  PRESS =     0.0
 Etot   =    -16468.4125  EKtot   =      3332.9678  EPtot      =    -19801.3803
 BOND   =        16.0834  ANGLE   =        22.5096  DIHED      =        15.0496
 1-4 NB =        16.0139  1-4 EEL =      -634.9763  VDWAALS    =      3132.5821
 EELEC  =    -22368.6426  EHBOND  =         0.0000  RESTRAINT  =         0.0000
 EKCMT  =         0.0000  VIRIAL  =         0.0000  VOLUME     =     60027.6212
                                                    Density    =         0.9889
 DV/DL  =        52.3324
 ------------------------------------------------------------------------------

      A V E R A G E S   O V E R   50000 S T E P S

 NSTEP =    50000   TIME(PS) =     120.000  TEMP(K) =   297.09  PRESS =     0.0
 Etot   =    -15562.7666  EKtot   =      3506.4749  EPtot      =    -19069.2414
 BOND   =        21.6084  ANGLE   =        20.4546  DIHED      =        16.7202
 1-4 NB =        14.8061  1-4 EEL =      -639.6833  VDWAALS    =      2804.4715
 EELEC  =    -21307.6190  EHBOND  =         0.0000  RESTRAINT  =         0.0000
 EKCMT  =         0.0000  VIRIAL  =         0.0000  VOLUME     =     59995.4595
                                                    Density    =         0.9894
 DV/DL  =        65.6511
 ------------------------------------------------------------------------------

      R M S  F L U C T U A T I O N S

 NSTEP =    50000   TIME(PS) =     120.000  TEMP(K) =    10.29  PRESS =     0.0
 Etot   =       403.2518  EKtot   =       121.4057  EPtot      =       292.0880
 BOND   =         3.8438  ANGLE   =         3.5634  DIHED      =         3.5921
 1-4 NB =         1.4308  1-4 EEL =         4.3551  VDWAALS    =       149.2869
 EELEC  =       428.0824  EHBOND  =         0.0000  RESTRAINT  =         0.0000
 EKCMT  =         0.0000  VIRIAL  =         0.0000  VOLUME     =       381.6350
                                                    Density    =         0.0063
 DV/DL  =        12.8831
 ------------------------------------------------------------------------------

      A V E R A G E S   O V E R   50000 S T E P S

 NSTEP =    50000   TIME(PS) =     120.000  TEMP(K) =   297.02  PRESS =     0.0
 Etot   =    -15557.3410  EKtot   =      3511.9004  EPtot      =    -19069.2414
 BOND   =        21.6084  ANGLE   =        20.4546  DIHED      =        16.7202
 1-4 NB =        14.8061  1-4 EEL =      -639.6833  VDWAALS    =      2804.4715
 EELEC  =    -21307.6190  EHBOND  =         0.0000  RESTRAINT  =         0.0000
 EKCMT  =         0.0000  VIRIAL  =         0.0000  VOLUME     =     59995.4595
                                                    Density    =         0.9907
 DV/DL  =        65.6511
 ------------------------------------------------------------------------------

      R M S  F L U C T U A T I O N S

 NSTEP =    50000   TIME(PS) =     120.000  TEMP(K) =    10.29  PRESS =     0.0
 Etot   =       403.4976  EKtot   =       121.6470  EPtot      =       292.0880
 BOND   =         3.8438  ANGLE   =         3.5634  DIHED      =         3.5921
 1-4 NB =         1.4308  1-4 EEL =         4.3551  VDWAALS    =       149.2869
 EELEC  =       428.0824  EHBOND  =         0.0000  RESTRAINT  =         0.0000
 EKCMT  =         0.0000  VIRIAL  =         0.0000  VOLUME     =       381.6350
                                                    Density    =         0.0063
 DV/DL  =        12.8831
 ------------------------------------------------------------------------------

      DV/DL, AVERAGES OVER   50000 STEPS

 NSTEP =    50000   TIME(PS) =     120.000  TEMP(K) =    10.29  PRESS =     0.0
 Etot   =         0.0000  EKtot   =         0.0000  EPtot      =        64.9917
 BOND   =         0.0000  ANGLE   =         0.0000  DIHED      =         0.0000
 1-4 NB =         0.0000  1-4 EEL =         0.0000  VDWAALS    =        -0.3362
 EELEC  =         0.0000  EHBOND  =         0.0000  RESTRAINT  =         0.0000
 EKCMT  =         0.0000  VIRIAL  =         0.0000  VOLUME     =         0.0000
                                                    Density    =         0.0000
 DV/DL  =        64.9917
 ------------------------------------------------------------------------------

      A V E R A G E S   O V E R   50000 S T E P S

 NSTEP =   100000   TIME(PS) =     220.000  TEMP(K) =   298.46  PRESS =     0.0
 Etot   =    -15503.8426  EKtot   =      3522.6872  EPtot      =    -19026.5298
 BOND   =        21.9728  ANGLE   =        20.8739  DIHED      =        17.2962
 1-4 NB =        14.6974  1-4 EEL =      -639.4308  VDWAALS    =      2777.8561
 EELEC  =    -21239.7955  EHBOND  =         0.0000  RESTRAINT  =         0.0000
 EKCMT  =         0.0000  VIRIAL  =         0.0000  VOLUME     =     59920.8231
                                                    Density    =         0.9907
 DV/DL  =        65.7456
 ------------------------------------------------------------------------------

      R M S  F L U C T U A T I O N S

 NSTEP =   100000   TIME(PS) =     220.000  TEMP(K) =     3.95  PRESS =     0.0
 Etot   =        78.6443  EKtot   =        46.6399  EPtot      =        63.9979
 BOND   =         3.7254  ANGLE   =         3.6655  DIHED      =         3.2858
 1-4 NB =         1.4652  1-4 EEL =         4.3890  VDWAALS    =        67.1001
 EELEC  =       105.1618  EHBOND  =         0.0000  RESTRAINT  =         0.0000
 EKCMT  =         0.0000  VIRIAL  =         0.0000  VOLUME     =       352.2491
                                                    Density    =         0.0058
 DV/DL  =        13.0311
 ------------------------------------------------------------------------------

      A V E R A G E S   O V E R   50000 S T E P S

 NSTEP =   100000   TIME(PS) =     220.000  TEMP(K) =   298.40  PRESS =     0.0
 Etot   =    -15498.2611  EKtot   =      3528.2687  EPtot      =    -19026.5298
 BOND   =        21.9728  ANGLE   =        20.8739  DIHED      =        17.2962
 1-4 NB =        14.6974  1-4 EEL =      -639.4308  VDWAALS    =      2777.8561
 EELEC  =    -21239.7955  EHBOND  =         0.0000  RESTRAINT  =         0.0000
 EKCMT  =         0.0000  VIRIAL  =         0.0000  VOLUME     =     59920.8231
                                                    Density    =         0.9919
 DV/DL  =        65.7456
 ------------------------------------------------------------------------------

      R M S  F L U C T U A T I O N S

 NSTEP =   100000   TIME(PS) =     220.000  TEMP(K) =     3.95  PRESS =     0.0
 Etot   =        78.6444  EKtot   =        46.7163  EPtot      =        63.9979
 BOND   =         3.7254  ANGLE   =         3.6655  DIHED      =         3.2858
 1-4 NB =         1.4652  1-4 EEL =         4.3890  VDWAALS    =        67.1001
 EELEC  =       105.1618  EHBOND  =         0.0000  RESTRAINT  =         0.0000
 EKCMT  =         0.0000  VIRIAL  =         0.0000  VOLUME     =       352.2491
                                                    Density    =         0.0058
 DV/DL  =        13.0311
 ------------------------------------------------------------------------------

      DV/DL, AVERAGES OVER   50000 STEPS

 NSTEP =   100000   TIME(PS) =     220.000  TEMP(K) =     3.95  PRESS =     0.0
 Etot   =         0.0000  EKtot   =         0.0000  EPtot      =        65.0923
 BOND   =         0.0000  ANGLE   =         0.0000  DIHED      =         0.0000
 1-4 NB =         0.0000  1-4 EEL =         0.0000  VDWAALS    =        -0.3366
 EELEC  =         0.0000  EHBOND  =         0.0000  RESTRAINT  =         0.0000
 EKCMT  =         0.0000  VIRIAL  =         0.0000  VOLUME     =         0.0000
                                                    Density    =         0.0000
 DV/DL  =        65.0923
 ------------------------------------------------------------------------------

      A V E R A G E S   O V E R   50000 S T E P S

 NSTEP =   500000   TIME(PS) =    1020.000  TEMP(K) =   298.31  PRESS =     0.0
 Etot   =    -15511.1050  EKtot   =      3520.9308  EPtot      =    -19032.0358
 BOND   =        21.7016  ANGLE   =        20.4453  DIHED      =        17.4347
 1-4 NB =        14.7578  1-4 EEL =      -639.2887  VDWAALS    =      2788.8428
 EELEC  =    -21255.9293  EHBOND  =         0.0000  RESTRAINT  =         0.0000
 EKCMT  =         0.0000  VIRIAL  =         0.0000  VOLUME     =     59992.4513
                                                    Density    =         0.9895
 DV/DL  =        65.8532
 ------------------------------------------------------------------------------

      R M S  F L U C T U A T I O N S

 NSTEP =   500000   TIME(PS) =    1020.000  TEMP(K) =     3.90  PRESS =     0.0
 Etot   =        83.3616  EKtot   =        45.9760  EPtot      =        68.5390
 BOND   =         3.8143  ANGLE   =         3.5153  DIHED      =         3.7072
 1-4 NB =         1.4296  1-4 EEL =         4.1727  VDWAALS    =        69.7410
 EELEC  =       110.0307  EHBOND  =         0.0000  RESTRAINT  =         0.0000
 EKCMT  =         0.0000  VIRIAL  =         0.0000  VOLUME     =       409.3847
                                                    Density    =         0.0068
 DV/DL  =        13.0333
 ------------------------------------------------------------------------------

      A V E R A G E S   O V E R   50000 S T E P S

 NSTEP =   500000   TIME(PS) =    1020.000  TEMP(K) =   298.28  PRESS =     0.0
 Etot   =    -15505.2935  EKtot   =      3526.7423  EPtot      =    -19032.0358
 BOND   =        21.7016  ANGLE   =        20.4453  DIHED      =        17.4347
 1-4 NB =        14.7578  1-4 EEL =      -639.2887  VDWAALS    =      2788.8428
 EELEC  =    -21255.9293  EHBOND  =         0.0000  RESTRAINT  =         0.0000
 EKCMT  =         0.0000  VIRIAL  =         0.0000  VOLUME     =     59992.4513
                                                    Density    =         0.9907
 DV/DL  =        65.8532
 ------------------------------------------------------------------------------

      R M S  F L U C T U A T I O N S

 NSTEP =   500000   TIME(PS) =    1020.000  TEMP(K) =     3.89  PRESS =     0.0
 Etot   =        83.5713  EKtot   =        46.0057  EPtot      =        68.5390
 BOND   =         3.8143  ANGLE   =         3.5153  DIHED      =         3.7072
 1-4 NB =         1.4296  1-4 EEL =         4.1727  VDWAALS    =        69.7410
 EELEC  =       110.0307  EHBOND  =         0.0000  RESTRAINT  =         0.0000
 EKCMT  =         0.0000  VIRIAL  =         0.0000  VOLUME     =       409.3847
                                                    Density    =         0.0068
 DV/DL  =        13.0333
 ------------------------------------------------------------------------------

      DV/DL, AVERAGES OVER   50000 STEPS

 NSTEP =   500000   TIME(PS) =    1020.000  TEMP(K) =     3.89  PRESS =     0.0
 Etot   =         0.0000  EKtot   =         0.0000  EPtot      =        65.1969
 BOND   =         0.0000  ANGLE   =         0.0000  DIHED      =         0.0000
 1-4 NB =         0.0000  1-4 EEL =         0.0000  VDWAALS    =        -0.3362
 EELEC  =         0.0000  EHBOND  =         0.0000  RESTRAINT  =         0.0000
 EKCMT  =         0.0000  VIRIAL  =         0.0000  VOLUME     =         0.0000
                                                    Density    =         0.0000
 DV/DL  =        65.1969
 ------------------------------------------------------------------------------

      A V E R A G E S   O V E R  500000 S T E P S

 NSTEP =   500000   TIME(PS) =    1020.000  TEMP(K) =   298.43  PRESS =     0.0
 Etot   =    -15505.6318  EKtot   =      3522.3623  EPtot      =    -19027.9941
 BOND   =        21.8068  ANGLE   =        20.4860  DIHED      =        16.8870
 1-4 NB =        14.7936  1-4 EEL =      -639.9185  VDWAALS    =      2785.6027
 EELEC  =    -21247.6516  EHBOND  =         0.0000  RESTRAINT  =         0.0000
 EKCMT  =         0.0000  VIRIAL  =         0.0000  VOLUME     =     60034.3463
                                                    Density    =         0.9888
 DV/DL  =        65.8131
 ------------------------------------------------------------------------------

      R M S  F L U C T U A T I O N S

 NSTEP =   500000   TIME(PS) =    1020.000  TEMP(K) =     4.92  PRESS =     0.0
 Etot   =       150.7387  EKtot   =        58.0847  EPtot      =       113.6735
 BOND   =         3.8065  ANGLE   =         3.6257  DIHED      =         3.5145
 1-4 NB =         1.4368  1-4 EEL =         4.3656  VDWAALS    =        80.6005
 EELEC  =       172.2727  EHBOND  =         0.0000  RESTRAINT  =         0.0000
 EKCMT  =         0.0000  VIRIAL  =         0.0000  VOLUME     =       393.4190
                                                    Density    =         0.0065
 DV/DL  =        12.8906
 ------------------------------------------------------------------------------

      A V E R A G E S   O V E R  500000 S T E P S

 NSTEP =   500000   TIME(PS) =    1020.000  TEMP(K) =   298.38  PRESS =     0.0
 Etot   =    -15500.0494  EKtot   =      3527.9447  EPtot      =    -19027.9941
 BOND   =        21.8068  ANGLE   =        20.4860  DIHED      =        16.8870
 1-4 NB =        14.7936  1-4 EEL =      -639.9185  VDWAALS    =      2785.6027
 EELEC  =    -21247.6516  EHBOND  =         0.0000  RESTRAINT  =         0.0000
 EKCMT  =         0.0000  VIRIAL  =         0.0000  VOLUME     =     60034.3463
                                                    Density    =         0.9900
 DV/DL  =        65.8131
 ------------------------------------------------------------------------------

      R M S  F L U C T U A T I O N S

 NSTEP =   500000   TIME(PS) =    1020.000  TEMP(K) =     4.92  PRESS =     0.0
 Etot   =       150.8246  EKtot   =        58.1709  EPtot      =       113.6735
 BOND   =         3.8065  ANGLE   =         3.6257  DIHED      =         3.5145
 1-4 NB =         1.4368  1-4 EEL =         4.3656  VDWAALS    =        80.6005
 EELEC  =       172.2727  EHBOND  =         0.0000  RESTRAINT  =         0.0000
 EKCMT  =         0.0000  VIRIAL  =         0.0000  VOLUME     =       393.4190
                                                    Density    =         0.0065
 DV/DL  =        12.8906
 ------------------------------------------------------------------------------

      DV/DL, AVERAGES OVER  500000 STEPS

 NSTEP =   500000   TIME(PS) =    1020.000  TEMP(K) =     4.92  PRESS =     0.0
 Etot   =         0.0000  EKtot   =         0.0000  EPtot      =        65.1544
 BOND   =         0.0000  ANGLE   =         0.0000  DIHED      =         0.0000
 1-4 NB =         0.0000  1-4 EEL =         0.0000  VDWAALS    =        -0.3360
 EELEC  =         0.0000  EHBOND  =         0.0000  RESTRAINT  =         0.0000
 EKCMT  =         0.0000  VIRIAL  =         0.0000  VOLUME     =         0.0000
                                                    Density    =         0.0000
 DV/DL  =        65.1544
 ------------------------------------------------------------------------------
