-------------------------------------------------------
          Amber 16 PMEMD                              2016
          -------------------------------------------------------

  [-O]verwriting output

File Assignments:

 Here is the input file:

TI/FEP, NpT, decharge transformation
 &cntrl
 ! please adjust namelist parameters to your needs!

 ! parameters for general MD
 imin = 0, nstlim = 500000, irest = 1, ntx = 5, dt = 0.002,
 ntt = 3, temp0 = 298.0, gamma_ln = 2.0, ig = -1,
 ntb = 2,
 ntp = 1, barostat = 2, pres0 = 1.01325, taup = 2.0,
 ntwe = 100, ntwx = 10000, ntpr = 1000, ntwr = 50000, ntave = 50000,
 ioutfm = 1, iwrap = 1, ntxo = 2,

 ! parameters for alchemical free energy simulation
 ntc = 2, ntf = 1,
 noshakemask = ':1,2',

 icfe = 1, ifsc = 0, clambda = 0.00, scalpha = 0.5, scbeta = 12.0,
 ifmbar = 1, mbar_lambda = 0.00 0.25 0.50 0.75 1.00,
 mbar_states = 5, bar_intervall = 1000,   ! ntpr = bar_intervall for alchemical

 timask1=':1', timask2=':2',
scmask1='',
scmask2='',
 crgmask = ':2@H34',
 /
 &ewald
 /

Note: ig = -1. Setting random seed to   196982 based on wallclock time in
      microseconds.

--------------------------------------------------------------------------------
   1.  RESOURCE   USE:
--------------------------------------------------------------------------------

 getting box info from netcdf restart file
 NATOM  =   46594 NTYPES =      28 NBONH =   43476 MBONA  =    3193
 NTHETH =    6829 MTHETA =    4351 NPHIH =   13982 MPHIA  =   13700
 NHPARM =       0 NPARM  =       0 NNB   =   87745 NRES   =   13889
 NBONA  =    3193 NTHETA =    4351 NPHIA =   13700 NUMBND =      89
 NUMANG =     195 NPTRA  =     203 NATYP =      50 NPHB   =       1
 IFBOX  =       1 NMXRS  =      43 IFCAP =       0 NEXTRA =       0
 NCOPY  =       0

     BOX TYPE: RECTILINEAR

--------------------------------------------------------------------------------
   2.  CONTROL  DATA  FOR  THE  RUN
--------------------------------------------------------------------------------

L0

General flags:
     imin    =       0, nmropt  =       0

Nature and format of input:
     ntx     =       5, irest   =       1, ntrx    =       1

Nature and format of output:
     ntxo    =       2, ntpr    =    1000, ntrx    =       1, ntwr    =   50000
     iwrap   =       1, ntwx    =   10000, ntwv    =       0, ntwe    =     100
     ioutfm  =       1, ntwprt  =       0, idecomp =       0, rbornstat=      0

Potential function:
     ntf     =       1, ntb     =       2, igb     =       0, nsnb    =      25
     ipol    =       0, gbsa    =       0, iesp    =       0
     dielc   =   1.00000, cut     =   8.00000, intdiel =   1.00000

Frozen or restrained atoms:
     ibelly  =       0, ntr     =       0

Molecular dynamics:
     nstlim  =    500000, nscm    =      1000, nrespa  =         1
     t       =   0.00000, dt      =   0.00200, vlimit  =  -1.00000

Langevin dynamics temperature regulation:
     ig      =  196982
     temp0   = 298.00000, tempi   =   0.00000, gamma_ln=   2.00000

Pressure regulation:
     ntp     =       1
     pres0   =   1.01325, comp    =  44.60000, taup    =   2.00000
     Monte-Carlo Barostat:
     mcbarint  =     100

SHAKE:
     ntc     =       2, jfastw  =       0
     tol     =   0.00001

Free energy options:
     icfe    =       1, ifsc    =       0, klambda =       1
     clambda =  0.0000, scalpha =  0.5000, scbeta  = 12.0000
     sceeorder =       2
     dynlmb =  0.0000 logdvdl =       0

FEP MBAR options:
     ifmbar  =       1,  bar_intervall =     1000
     mbar_states =       5

Ewald parameters:
     verbose =       0, ew_type =       0, nbflag  =       1, use_pme =       1
     vdwmeth =       1, eedmeth =       1, netfrc  =       1
     Box X =   87.894   Box Y =   67.207   Box Z =   78.608
     Alpha =   90.000   Beta  =   90.000   Gamma =   90.000
     NFFT1 =   96       NFFT2 =   64       NFFT3 =   80
     Cutoff=    8.000   Tol   =0.100E-04
     Ewald Coefficient =  0.34864
     Interpolation order =    4
     TI Mask 1 :1; matches     43 atoms
     TI Mask 2 :2; matches     43 atoms
     TI region 1:   46551 atoms
     TI region 2:   46551 atoms
Removing charge of       0.1510 from atom      86
Total charge of   0.15104700 removed from       1 atoms

    MBAR - lambda values considered:
       5 total:  0.0000 0.2500 0.5000 0.7500 1.0000
    Extra energies will be computed    500 times.
     Checking for mismatched coordinates.
 Noshake mask :1,2; matches      86 atoms.

--------------------------------------------------------------------------------
   3.  ATOMIC COORDINATES AND VELOCITIES
--------------------------------------------------------------------------------

L0
 begin time read from input coords =    20.000 ps

 Number of triangulated 3-point waters found:    13488
   Removing shake constraints from C22   L0    1 -- H41   L0    1
   Removing shake constraints from C22   L0    1 -- H42   L0    1
   Removing shake constraints from C21   L0    1 -- H39   L0    1
   Removing shake constraints from C21   L0    1 -- H40   L0    1
   Removing shake constraints from C20   L0    1 -- H38   L0    1
   Removing shake constraints from C19   L0    1 -- H37   L0    1
   Removing shake constraints from C18   L0    1 -- H36   L0    1
   Removing shake constraints from C15   L0    1 -- H35   L0    1
   Removing shake constraints from C14   L0    1 -- H34   L0    1
   Removing shake constraints from C13   L0    1 -- H33   L0    1
   Removing shake constraints from C10   L0    1 -- H32   L0    1
   Removing shake constraints from C9    L0    1 -- H31   L0    1
   Removing shake constraints from C8    L0    1 -- H30   L0    1
   Removing shake constraints from N5    L0    1 -- H29   L0    1
   Removing shake constraints from N4    L0    1 -- H43   L0    1
   Removing shake constraints from N4    L0    1 -- H28   L0    1
   Removing shake constraints from C1    L0    1 -- H25   L0    1
   Removing shake constraints from C1    L0    1 -- H26   L0    1
   Removing shake constraints from C1    L0    1 -- H27   L0    1
   Removing shake constraints from C22   L0    2 -- H41   L0    2
   Removing shake constraints from C22   L0    2 -- H42   L0    2
   Removing shake constraints from C21   L0    2 -- H39   L0    2
   Removing shake constraints from C21   L0    2 -- H40   L0    2
   Removing shake constraints from C20   L0    2 -- H38   L0    2
   Removing shake constraints from C19   L0    2 -- H37   L0    2
   Removing shake constraints from C18   L0    2 -- H36   L0    2
   Removing shake constraints from C15   L0    2 -- H35   L0    2
   Removing shake constraints from C14   L0    2 -- H34   L0    2
   Removing shake constraints from C13   L0    2 -- H33   L0    2
   Removing shake constraints from C10   L0    2 -- H32   L0    2
   Removing shake constraints from C9    L0    2 -- H31   L0    2
   Removing shake constraints from C8    L0    2 -- H30   L0    2
   Removing shake constraints from N5    L0    2 -- H29   L0    2
   Removing shake constraints from N4    L0    2 -- H43   L0    2
   Removing shake constraints from N4    L0    2 -- H28   L0    2
   Removing shake constraints from C1    L0    2 -- H25   L0    2
   Removing shake constraints from C1    L0    2 -- H26   L0    2
   Removing shake constraints from C1    L0    2 -- H27   L0    2
 Number of shake restraints removed:       38

     Sum of charges for TI region  1 =   0.00001978
     Forcing neutrality...

     Sum of charges for TI region  2 =  -0.15102723
     Assuming uniform neutralizing plasma

--------------------------------------------------------------------------------
   4.  RESULTS
 NSTEP =     1000   TIME(PS) =      22.000  TEMP(K) =   283.42  PRESS =     0.0
 Etot   =   -116854.0994  EKtot   =     27099.7051  EPtot      =   -143953.8045
 BOND   =      1181.9188  ANGLE   =      3026.9722  DIHED      =      4879.9464
 1-4 NB =      1417.2238  1-4 EEL =     15998.2083  VDWAALS    =     17414.5628
 EELEC  =   -187872.6369  EHBOND  =         0.0000  RESTRAINT  =         0.0000
 EKCMT  =         0.0000  VIRIAL  =         0.0000  VOLUME     =    466310.1949
                                                    Density    =         1.0217
 DV/DL  =        -3.1522
 ------------------------------------------------------------------------------

      A V E R A G E S   O V E R   50000 S T E P S

 NSTEP =    50000   TIME(PS) =     120.000  TEMP(K) =   296.55  PRESS =     0.0
 Etot   =   -111641.4118  EKtot   =     28355.4595  EPtot      =   -139996.8712
 BOND   =      1188.0331  ANGLE   =      3065.4333  DIHED      =      4896.4915
 1-4 NB =      1411.1520  1-4 EEL =     15999.9602  VDWAALS    =     15743.3483
 EELEC  =   -182301.2897  EHBOND  =         0.0000  RESTRAINT  =         0.0000
 EKCMT  =         0.0000  VIRIAL  =         0.0000  VOLUME     =    462927.6326
                                                    Density    =         1.0292
 DV/DL  =        -3.6440
 ------------------------------------------------------------------------------

      R M S  F L U C T U A T I O N S

 NSTEP =    50000   TIME(PS) =     120.000  TEMP(K) =    10.30  PRESS =     0.0
 Etot   =      3072.3809  EKtot   =       984.5252  EPtot      =      2108.2017
 BOND   =        48.7999  ANGLE   =        97.6036  DIHED      =        34.7899
 1-4 NB =        16.1759  1-4 EEL =        41.7412  VDWAALS    =       865.8441
 EELEC  =      2808.0100  EHBOND  =         0.0000  RESTRAINT  =         0.0000
 EKCMT  =         0.0000  VIRIAL  =         0.0000  VOLUME     =      1094.6785
                                                    Density    =         0.0024
 DV/DL  =         1.2791
 ------------------------------------------------------------------------------

      A V E R A G E S   O V E R   50000 S T E P S

 NSTEP =    50000   TIME(PS) =     120.000  TEMP(K) =   296.55  PRESS =     0.0
 Etot   =   -111641.4118  EKtot   =     28355.4595  EPtot      =   -139996.8712
 BOND   =      1188.0331  ANGLE   =      3065.4333  DIHED      =      4896.4915
 1-4 NB =      1411.1520  1-4 EEL =     15999.9602  VDWAALS    =     15743.3483
 EELEC  =   -182301.2897  EHBOND  =         0.0000  RESTRAINT  =         0.0000
 EKCMT  =         0.0000  VIRIAL  =         0.0000  VOLUME     =    462927.6326
                                                    Density    =         1.0292
 DV/DL  =        -3.6440
 ------------------------------------------------------------------------------

      R M S  F L U C T U A T I O N S

 NSTEP =    50000   TIME(PS) =     120.000  TEMP(K) =    10.30  PRESS =     0.0
 Etot   =      3072.3809  EKtot   =       984.5252  EPtot      =      2108.2017
 BOND   =        48.7999  ANGLE   =        97.6036  DIHED      =        34.7899
 1-4 NB =        16.1759  1-4 EEL =        41.7412  VDWAALS    =       865.8441
 EELEC  =      2808.0100  EHBOND  =         0.0000  RESTRAINT  =         0.0000
 EKCMT  =         0.0000  VIRIAL  =         0.0000  VOLUME     =      1094.6785
                                                    Density    =         0.0024
 DV/DL  =         1.2791
 ------------------------------------------------------------------------------

      DV/DL, AVERAGES OVER   50000 STEPS

 NSTEP =    50000   TIME(PS) =     120.000  TEMP(K) =    10.30  PRESS =     0.0
 Etot   =         0.0000  EKtot   =         0.0000  EPtot      =        -3.6075
 BOND   =         0.0000  ANGLE   =         0.0000  DIHED      =         0.0000
 1-4 NB =         0.0000  1-4 EEL =         0.0000  VDWAALS    =         0.0000
 EELEC  =         1.4899  EHBOND  =         0.0000  RESTRAINT  =         0.0000
 EKCMT  =         0.0000  VIRIAL  =         0.0000  VOLUME     =         0.0000
                                                    Density    =         0.0000
 DV/DL  =        -3.6075
 ------------------------------------------------------------------------------

      A V E R A G E S   O V E R   50000 S T E P S

 NSTEP =   100000   TIME(PS) =     220.000  TEMP(K) =   297.90  PRESS =     0.0
 Etot   =   -111188.1159  EKtot   =     28484.7918  EPtot      =   -139672.9077
 BOND   =      1190.8655  ANGLE   =      3073.8640  DIHED      =      4901.6728
 1-4 NB =      1410.5606  1-4 EEL =     15998.1893  VDWAALS    =     15607.4342
 EELEC  =   -181855.4940  EHBOND  =         0.0000  RESTRAINT  =         0.0000
 EKCMT  =         0.0000  VIRIAL  =         0.0000  VOLUME     =    462365.7018
                                                    Density    =         1.0305
 DV/DL  =        -3.7401
 ------------------------------------------------------------------------------

      R M S  F L U C T U A T I O N S

 NSTEP =   100000   TIME(PS) =     220.000  TEMP(K) =     1.34  PRESS =     0.0
 Etot   =       217.0392  EKtot   =       127.8405  EPtot      =       182.1893
 BOND   =        28.6311  ANGLE   =        41.5310  DIHED      =        24.0477
 1-4 NB =        15.3029  1-4 EEL =        42.3164  VDWAALS    =       184.1394
 EELEC  =       291.6604  EHBOND  =         0.0000  RESTRAINT  =         0.0000
 EKCMT  =         0.0000  VIRIAL  =         0.0000  VOLUME     =      1012.7894
                                                    Density    =         0.0023
 DV/DL  =         1.3131
 ------------------------------------------------------------------------------

      A V E R A G E S   O V E R   50000 S T E P S

 NSTEP =   100000   TIME(PS) =     220.000  TEMP(K) =   297.90  PRESS =     0.0
 Etot   =   -111188.1159  EKtot   =     28484.7918  EPtot      =   -139672.9077
 BOND   =      1190.8655  ANGLE   =      3073.8640  DIHED      =      4901.6728
 1-4 NB =      1410.5606  1-4 EEL =     15998.1893  VDWAALS    =     15607.4342
 EELEC  =   -181855.4940  EHBOND  =         0.0000  RESTRAINT  =         0.0000
 EKCMT  =         0.0000  VIRIAL  =         0.0000  VOLUME     =    462365.7018
                                                    Density    =         1.0305
 DV/DL  =        -3.7401
 ------------------------------------------------------------------------------

      R M S  F L U C T U A T I O N S

 NSTEP =   100000   TIME(PS) =     220.000  TEMP(K) =     1.34  PRESS =     0.0
 Etot   =       217.0392  EKtot   =       127.8405  EPtot      =       182.1893
 BOND   =        28.6311  ANGLE   =        41.5310  DIHED      =        24.0477
 1-4 NB =        15.3029  1-4 EEL =        42.3164  VDWAALS    =       184.1394
 EELEC  =       291.6604  EHBOND  =         0.0000  RESTRAINT  =         0.0000
 EKCMT  =         0.0000  VIRIAL  =         0.0000  VOLUME     =      1012.7894
                                                    Density    =         0.0023
 DV/DL  =         1.3131
 ------------------------------------------------------------------------------

      DV/DL, AVERAGES OVER   50000 STEPS

 NSTEP =   100000   TIME(PS) =     220.000  TEMP(K) =     1.34  PRESS =     0.0
 Etot   =         0.0000  EKtot   =         0.0000  EPtot      =        -3.7026
 BOND   =         0.0000  ANGLE   =         0.0000  DIHED      =         0.0000
 1-4 NB =         0.0000  1-4 EEL =         0.0000  VDWAALS    =         0.0000
 EELEC  =         1.4899  EHBOND  =         0.0000  RESTRAINT  =         0.0000
 EKCMT  =         0.0000  VIRIAL  =         0.0000  VOLUME     =         0.0000
                                                    Density    =         0.0000
 DV/DL  =        -3.7026
 ------------------------------------------------------------------------------

      A V E R A G E S   O V E R   50000 S T E P S

 NSTEP =   500000   TIME(PS) =    1020.000  TEMP(K) =   298.02  PRESS =     0.0
 Etot   =   -111153.7589  EKtot   =     28495.5144  EPtot      =   -139649.2733
 BOND   =      1187.5934  ANGLE   =      3060.2516  DIHED      =      4897.5901
 1-4 NB =      1415.4101  1-4 EEL =     16074.1945  VDWAALS    =     15596.0014
 EELEC  =   -181880.3143  EHBOND  =         0.0000  RESTRAINT  =         0.0000
 EKCMT  =         0.0000  VIRIAL  =         0.0000  VOLUME     =    462807.4298
                                                    Density    =         1.0295
 DV/DL  =        -3.5378
 ------------------------------------------------------------------------------

      R M S  F L U C T U A T I O N S

 NSTEP =   500000   TIME(PS) =    1020.000  TEMP(K) =     1.34  PRESS =     0.0
 Etot   =       218.4054  EKtot   =       128.0356  EPtot      =       179.8523
 BOND   =        29.4131  ANGLE   =        41.8287  DIHED      =        23.6092
 1-4 NB =        15.3852  1-4 EEL =        43.3387  VDWAALS    =       187.1913
 EELEC  =       287.2752  EHBOND  =         0.0000  RESTRAINT  =         0.0000
 EKCMT  =         0.0000  VIRIAL  =         0.0000  VOLUME     =       948.9835
                                                    Density    =         0.0021
 DV/DL  =         1.3206
 ------------------------------------------------------------------------------

      A V E R A G E S   O V E R   50000 S T E P S

 NSTEP =   500000   TIME(PS) =    1020.000  TEMP(K) =   298.02  PRESS =     0.0
 Etot   =   -111153.7589  EKtot   =     28495.5144  EPtot      =   -139649.2733
 BOND   =      1187.5934  ANGLE   =      3060.2516  DIHED      =      4897.5901
 1-4 NB =      1415.4101  1-4 EEL =     16074.1945  VDWAALS    =     15596.0014
 EELEC  =   -181880.3143  EHBOND  =         0.0000  RESTRAINT  =         0.0000
 EKCMT  =         0.0000  VIRIAL  =         0.0000  VOLUME     =    462807.4298
                                                    Density    =         1.0295
 DV/DL  =        -3.5378
 ------------------------------------------------------------------------------

      R M S  F L U C T U A T I O N S

 NSTEP =   500000   TIME(PS) =    1020.000  TEMP(K) =     1.34  PRESS =     0.0
 Etot   =       218.4054  EKtot   =       128.0356  EPtot      =       179.8523
 BOND   =        29.4131  ANGLE   =        41.8287  DIHED      =        23.6092
 1-4 NB =        15.3852  1-4 EEL =        43.3387  VDWAALS    =       187.1913
 EELEC  =       287.2752  EHBOND  =         0.0000  RESTRAINT  =         0.0000
 EKCMT  =         0.0000  VIRIAL  =         0.0000  VOLUME     =       948.9835
                                                    Density    =         0.0021
 DV/DL  =         1.3206
 ------------------------------------------------------------------------------

      DV/DL, AVERAGES OVER   50000 STEPS

 NSTEP =   500000   TIME(PS) =    1020.000  TEMP(K) =     1.34  PRESS =     0.0
 Etot   =         0.0000  EKtot   =         0.0000  EPtot      =        -3.5028
 BOND   =         0.0000  ANGLE   =         0.0000  DIHED      =         0.0000
 1-4 NB =         0.0000  1-4 EEL =         0.0000  VDWAALS    =         0.0000
 EELEC  =         1.4899  EHBOND  =         0.0000  RESTRAINT  =         0.0000
 EKCMT  =         0.0000  VIRIAL  =         0.0000  VOLUME     =         0.0000
                                                    Density    =         0.0000
 DV/DL  =        -3.5028
 ------------------------------------------------------------------------------

      A V E R A G E S   O V E R  500000 S T E P S

 NSTEP =   500000   TIME(PS) =    1020.000  TEMP(K) =   297.82  PRESS =     0.0
 Etot   =   -111224.4990  EKtot   =     28477.1147  EPtot      =   -139701.6136
 BOND   =      1188.4903  ANGLE   =      3065.1080  DIHED      =      4892.9192
 1-4 NB =      1412.6471  1-4 EEL =     16014.9041  VDWAALS    =     15614.3885
 EELEC  =   -181890.0709  EHBOND  =         0.0000  RESTRAINT  =         0.0000
 EKCMT  =         0.0000  VIRIAL  =         0.0000  VOLUME     =    462727.3381
                                                    Density    =         1.0297
 DV/DL  =        -3.7074
 ------------------------------------------------------------------------------

      R M S  F L U C T U A T I O N S

 NSTEP =   500000   TIME(PS) =    1020.000  TEMP(K) =     3.53  PRESS =     0.0
 Etot   =      1005.9702  EKtot   =       337.0602  EPtot      =       698.3272
 BOND   =        31.5819  ANGLE   =        50.7881  DIHED      =        25.7214
 1-4 NB =        15.4776  1-4 EEL =        49.8597  VDWAALS    =       328.1501
 EELEC  =       942.5177  EHBOND  =         0.0000  RESTRAINT  =         0.0000
 EKCMT  =         0.0000  VIRIAL  =         0.0000  VOLUME     =      1120.0318
                                                    Density    =         0.0025
 DV/DL  =         1.3191
 ------------------------------------------------------------------------------

      A V E R A G E S   O V E R  500000 S T E P S

 NSTEP =   500000   TIME(PS) =    1020.000  TEMP(K) =   297.82  PRESS =     0.0
 Etot   =   -111224.4990  EKtot   =     28477.1147  EPtot      =   -139701.6136
 BOND   =      1188.4903  ANGLE   =      3065.1080  DIHED      =      4892.9192
 1-4 NB =      1412.6471  1-4 EEL =     16014.9041  VDWAALS    =     15614.3885
 EELEC  =   -181890.0709  EHBOND  =         0.0000  RESTRAINT  =         0.0000
 EKCMT  =         0.0000  VIRIAL  =         0.0000  VOLUME     =    462727.3381
                                                    Density    =         1.0297
 DV/DL  =        -3.7074
 ------------------------------------------------------------------------------

      R M S  F L U C T U A T I O N S

 NSTEP =   500000   TIME(PS) =    1020.000  TEMP(K) =     3.53  PRESS =     0.0
 Etot   =      1005.9702  EKtot   =       337.0602  EPtot      =       698.3272
 BOND   =        31.5819  ANGLE   =        50.7881  DIHED      =        25.7214
 1-4 NB =        15.4776  1-4 EEL =        49.8597  VDWAALS    =       328.1501
 EELEC  =       942.5177  EHBOND  =         0.0000  RESTRAINT  =         0.0000
 EKCMT  =         0.0000  VIRIAL  =         0.0000  VOLUME     =      1120.0318
                                                    Density    =         0.0025
 DV/DL  =         1.3191
 ------------------------------------------------------------------------------

      DV/DL, AVERAGES OVER  500000 STEPS

 NSTEP =   500000   TIME(PS) =    1020.000  TEMP(K) =     3.53  PRESS =     0.0
 Etot   =         0.0000  EKtot   =         0.0000  EPtot      =        -3.6702
 BOND   =         0.0000  ANGLE   =         0.0000  DIHED      =         0.0000
 1-4 NB =         0.0000  1-4 EEL =         0.0000  VDWAALS    =         0.0000
 EELEC  =         1.4899  EHBOND  =         0.0000  RESTRAINT  =         0.0000
 EKCMT  =         0.0000  VIRIAL  =         0.0000  VOLUME     =         0.0000
                                                    Density    =         0.0000
 DV/DL  =        -3.6702
 ------------------------------------------------------------------------------
