-------------------------------------------------------
          Amber 16 PMEMD                              2016
          -------------------------------------------------------

  [-O]verwriting output

File Assignments:

 Here is the input file:

TI/FEP, NpT, decharge transformation
 &cntrl
 ! please adjust namelist parameters to your needs!

 ! parameters for general MD
 imin = 0, nstlim = 500000, irest = 1, ntx = 5, dt = 0.002,
 ntt = 3, temp0 = 298.0, gamma_ln = 2.0, ig = -1,
 ntb = 2,
 ntp = 1, barostat = 2, pres0 = 1.01325, taup = 2.0,
 ntwe = 100, ntwx = 10000, ntpr = 1000, ntwr = 50000, ntave = 50000,
 ioutfm = 1, iwrap = 1, ntxo = 2,

 ! parameters for alchemical free energy simulation
 ntc = 2, ntf = 1,
 noshakemask = ':1,2',

 icfe = 1, ifsc = 0, clambda = 1.00, scalpha = 0.5, scbeta = 12.0,
 ifmbar = 1, mbar_lambda = 0.00 0.25 0.50 0.75 1.00,
 mbar_states = 5, bar_intervall = 1000,   ! ntpr = bar_intervall for alchemical

 timask1=':1', timask2=':2',
scmask1='',
scmask2='',
 crgmask = ':2@H34',
 /
 &ewald
 /

Note: ig = -1. Setting random seed to   151082 based on wallclock time in
      microseconds.

--------------------------------------------------------------------------------
   1.  RESOURCE   USE:
--------------------------------------------------------------------------------

 getting box info from netcdf restart file
 NATOM  =   46594 NTYPES =      28 NBONH =   43476 MBONA  =    3193
 NTHETH =    6829 MTHETA =    4351 NPHIH =   13982 MPHIA  =   13700
 NHPARM =       0 NPARM  =       0 NNB   =   87745 NRES   =   13889
 NBONA  =    3193 NTHETA =    4351 NPHIA =   13700 NUMBND =      89
 NUMANG =     195 NPTRA  =     203 NATYP =      50 NPHB   =       1
 IFBOX  =       1 NMXRS  =      43 IFCAP =       0 NEXTRA =       0
 NCOPY  =       0

     BOX TYPE: RECTILINEAR

--------------------------------------------------------------------------------
   2.  CONTROL  DATA  FOR  THE  RUN
--------------------------------------------------------------------------------

L0

General flags:
     imin    =       0, nmropt  =       0

Nature and format of input:
     ntx     =       5, irest   =       1, ntrx    =       1

Nature and format of output:
     ntxo    =       2, ntpr    =    1000, ntrx    =       1, ntwr    =   50000
     iwrap   =       1, ntwx    =   10000, ntwv    =       0, ntwe    =     100
     ioutfm  =       1, ntwprt  =       0, idecomp =       0, rbornstat=      0

Potential function:
     ntf     =       1, ntb     =       2, igb     =       0, nsnb    =      25
     ipol    =       0, gbsa    =       0, iesp    =       0
     dielc   =   1.00000, cut     =   8.00000, intdiel =   1.00000

Frozen or restrained atoms:
     ibelly  =       0, ntr     =       0

Molecular dynamics:
     nstlim  =    500000, nscm    =      1000, nrespa  =         1
     t       =   0.00000, dt      =   0.00200, vlimit  =  -1.00000

Langevin dynamics temperature regulation:
     ig      =  151082
     temp0   = 298.00000, tempi   =   0.00000, gamma_ln=   2.00000

Pressure regulation:
     ntp     =       1
     pres0   =   1.01325, comp    =  44.60000, taup    =   2.00000
     Monte-Carlo Barostat:
     mcbarint  =     100

SHAKE:
     ntc     =       2, jfastw  =       0
     tol     =   0.00001

Free energy options:
     icfe    =       1, ifsc    =       0, klambda =       1
     clambda =  1.0000, scalpha =  0.5000, scbeta  = 12.0000
     sceeorder =       2
     dynlmb =  0.0000 logdvdl =       0

FEP MBAR options:
     ifmbar  =       1,  bar_intervall =     1000
     mbar_states =       5

Ewald parameters:
     verbose =       0, ew_type =       0, nbflag  =       1, use_pme =       1
     vdwmeth =       1, eedmeth =       1, netfrc  =       1
     Box X =   87.894   Box Y =   67.207   Box Z =   78.608
     Alpha =   90.000   Beta  =   90.000   Gamma =   90.000
     NFFT1 =   96       NFFT2 =   64       NFFT3 =   80
     Cutoff=    8.000   Tol   =0.100E-04
     Ewald Coefficient =  0.34864
     Interpolation order =    4
     TI Mask 1 :1; matches     43 atoms
     TI Mask 2 :2; matches     43 atoms
     TI region 1:   46551 atoms
     TI region 2:   46551 atoms
Removing charge of       0.1510 from atom      86
Total charge of   0.15104700 removed from       1 atoms

    MBAR - lambda values considered:
       5 total:  0.0000 0.2500 0.5000 0.7500 1.0000
    Extra energies will be computed    500 times.
     Checking for mismatched coordinates.
 Noshake mask :1,2; matches      86 atoms.

--------------------------------------------------------------------------------
   3.  ATOMIC COORDINATES AND VELOCITIES
--------------------------------------------------------------------------------

L0
 begin time read from input coords =    20.000 ps

 Number of triangulated 3-point waters found:    13488
   Removing shake constraints from C22   L0    1 -- H41   L0    1
   Removing shake constraints from C22   L0    1 -- H42   L0    1
   Removing shake constraints from C21   L0    1 -- H39   L0    1
   Removing shake constraints from C21   L0    1 -- H40   L0    1
   Removing shake constraints from C20   L0    1 -- H38   L0    1
   Removing shake constraints from C19   L0    1 -- H37   L0    1
   Removing shake constraints from C18   L0    1 -- H36   L0    1
   Removing shake constraints from C15   L0    1 -- H35   L0    1
   Removing shake constraints from C14   L0    1 -- H34   L0    1
   Removing shake constraints from C13   L0    1 -- H33   L0    1
   Removing shake constraints from C10   L0    1 -- H32   L0    1
   Removing shake constraints from C9    L0    1 -- H31   L0    1
   Removing shake constraints from C8    L0    1 -- H30   L0    1
   Removing shake constraints from N5    L0    1 -- H29   L0    1
   Removing shake constraints from N4    L0    1 -- H43   L0    1
   Removing shake constraints from N4    L0    1 -- H28   L0    1
   Removing shake constraints from C1    L0    1 -- H25   L0    1
   Removing shake constraints from C1    L0    1 -- H26   L0    1
   Removing shake constraints from C1    L0    1 -- H27   L0    1
   Removing shake constraints from C22   L0    2 -- H41   L0    2
   Removing shake constraints from C22   L0    2 -- H42   L0    2
   Removing shake constraints from C21   L0    2 -- H39   L0    2
   Removing shake constraints from C21   L0    2 -- H40   L0    2
   Removing shake constraints from C20   L0    2 -- H38   L0    2
   Removing shake constraints from C19   L0    2 -- H37   L0    2
   Removing shake constraints from C18   L0    2 -- H36   L0    2
   Removing shake constraints from C15   L0    2 -- H35   L0    2
   Removing shake constraints from C14   L0    2 -- H34   L0    2
   Removing shake constraints from C13   L0    2 -- H33   L0    2
   Removing shake constraints from C10   L0    2 -- H32   L0    2
   Removing shake constraints from C9    L0    2 -- H31   L0    2
   Removing shake constraints from C8    L0    2 -- H30   L0    2
   Removing shake constraints from N5    L0    2 -- H29   L0    2
   Removing shake constraints from N4    L0    2 -- H43   L0    2
   Removing shake constraints from N4    L0    2 -- H28   L0    2
   Removing shake constraints from C1    L0    2 -- H25   L0    2
   Removing shake constraints from C1    L0    2 -- H26   L0    2
   Removing shake constraints from C1    L0    2 -- H27   L0    2
 Number of shake restraints removed:       38

     Sum of charges for TI region  1 =   0.00001978
     Forcing neutrality...

     Sum of charges for TI region  2 =  -0.15102723
     Assuming uniform neutralizing plasma

--------------------------------------------------------------------------------
   4.  RESULTS
 NSTEP =     1000   TIME(PS) =      22.000  TEMP(K) =   285.63  PRESS =     0.0
 Etot   =   -116473.8270  EKtot   =     27311.3672  EPtot      =   -143785.1942
 BOND   =      1174.8791  ANGLE   =      3050.2892  DIHED      =      4881.9544
 1-4 NB =      1417.4836  1-4 EEL =     16009.3406  VDWAALS    =     17298.1227
 EELEC  =   -187617.2637  EHBOND  =         0.0000  RESTRAINT  =         0.0000
 EKCMT  =         0.0000  VIRIAL  =         0.0000  VOLUME     =    466287.4017
                                                    Density    =         1.0218
 DV/DL  =        -7.3067
 ------------------------------------------------------------------------------

      A V E R A G E S   O V E R   50000 S T E P S

 NSTEP =    50000   TIME(PS) =     120.000  TEMP(K) =   296.66  PRESS =     0.0
 Etot   =   -111572.8371  EKtot   =     28365.7691  EPtot      =   -139938.6062
 BOND   =      1186.9838  ANGLE   =      3063.2107  DIHED      =      4890.2544
 1-4 NB =      1411.3439  1-4 EEL =     15997.8768  VDWAALS    =     15730.5141
 EELEC  =   -182218.7900  EHBOND  =         0.0000  RESTRAINT  =         0.0000
 EKCMT  =         0.0000  VIRIAL  =         0.0000  VOLUME     =    462968.7552
                                                    Density    =         1.0291
 DV/DL  =        -6.9333
 ------------------------------------------------------------------------------

      R M S  F L U C T U A T I O N S

 NSTEP =    50000   TIME(PS) =     120.000  TEMP(K) =    10.32  PRESS =     0.0
 Etot   =      3080.0213  EKtot   =       987.1362  EPtot      =      2113.3617
 BOND   =        48.4789  ANGLE   =        97.4831  DIHED      =        34.7257
 1-4 NB =        16.0519  1-4 EEL =        41.0809  VDWAALS    =       869.2706
 EELEC  =      2820.4371  EHBOND  =         0.0000  RESTRAINT  =         0.0000
 EKCMT  =         0.0000  VIRIAL  =         0.0000  VOLUME     =      1593.6070
                                                    Density    =         0.0035
 DV/DL  =         1.4953
 ------------------------------------------------------------------------------

      A V E R A G E S   O V E R   50000 S T E P S

 NSTEP =    50000   TIME(PS) =     120.000  TEMP(K) =   296.66  PRESS =     0.0
 Etot   =   -111572.8371  EKtot   =     28365.7691  EPtot      =   -139938.6062
 BOND   =      1186.9838  ANGLE   =      3063.2107  DIHED      =      4890.2544
 1-4 NB =      1411.3439  1-4 EEL =     15997.8768  VDWAALS    =     15730.5141
 EELEC  =   -182218.7900  EHBOND  =         0.0000  RESTRAINT  =         0.0000
 EKCMT  =         0.0000  VIRIAL  =         0.0000  VOLUME     =    462968.7552
                                                    Density    =         1.0291
 DV/DL  =        -6.9333
 ------------------------------------------------------------------------------

      R M S  F L U C T U A T I O N S

 NSTEP =    50000   TIME(PS) =     120.000  TEMP(K) =    10.32  PRESS =     0.0
 Etot   =      3080.0213  EKtot   =       987.1362  EPtot      =      2113.3617
 BOND   =        48.4789  ANGLE   =        97.4831  DIHED      =        34.7257
 1-4 NB =        16.0519  1-4 EEL =        41.0809  VDWAALS    =       869.2706
 EELEC  =      2820.4371  EHBOND  =         0.0000  RESTRAINT  =         0.0000
 EKCMT  =         0.0000  VIRIAL  =         0.0000  VOLUME     =      1593.6070
                                                    Density    =         0.0035
 DV/DL  =         1.4953
 ------------------------------------------------------------------------------

      DV/DL, AVERAGES OVER   50000 STEPS

 NSTEP =    50000   TIME(PS) =     120.000  TEMP(K) =    10.32  PRESS =     0.0
 Etot   =         0.0000  EKtot   =         0.0000  EPtot      =        -6.8642
 BOND   =         0.0000  ANGLE   =         0.0000  DIHED      =         0.0000
 1-4 NB =         0.0000  1-4 EEL =         0.0000  VDWAALS    =         0.0000
 EELEC  =         1.4899  EHBOND  =         0.0000  RESTRAINT  =         0.0000
 EKCMT  =         0.0000  VIRIAL  =         0.0000  VOLUME     =         0.0000
                                                    Density    =         0.0000
 DV/DL  =        -6.8642
 ------------------------------------------------------------------------------

      A V E R A G E S   O V E R   50000 S T E P S

 NSTEP =   100000   TIME(PS) =     220.000  TEMP(K) =   298.10  PRESS =     0.0
 Etot   =   -111119.1755  EKtot   =     28503.9476  EPtot      =   -139623.1231
 BOND   =      1188.1250  ANGLE   =      3069.4807  DIHED      =      4889.9285
 1-4 NB =      1412.1545  1-4 EEL =     16003.3390  VDWAALS    =     15595.3467
 EELEC  =   -181781.4976  EHBOND  =         0.0000  RESTRAINT  =         0.0000
 EKCMT  =         0.0000  VIRIAL  =         0.0000  VOLUME     =    462873.2384
                                                    Density    =         1.0293
 DV/DL  =        -6.6208
 ------------------------------------------------------------------------------

      R M S  F L U C T U A T I O N S

 NSTEP =   100000   TIME(PS) =     220.000  TEMP(K) =     1.43  PRESS =     0.0
 Etot   =       267.1542  EKtot   =       136.9892  EPtot      =       209.6366
 BOND   =        29.2445  ANGLE   =        42.4162  DIHED      =        24.9769
 1-4 NB =        15.5351  1-4 EEL =        42.7684  VDWAALS    =       184.6163
 EELEC  =       312.3043  EHBOND  =         0.0000  RESTRAINT  =         0.0000
 EKCMT  =         0.0000  VIRIAL  =         0.0000  VOLUME     =       802.2282
                                                    Density    =         0.0018
 DV/DL  =         1.4645
 ------------------------------------------------------------------------------

      A V E R A G E S   O V E R   50000 S T E P S

 NSTEP =   100000   TIME(PS) =     220.000  TEMP(K) =   298.10  PRESS =     0.0
 Etot   =   -111119.1755  EKtot   =     28503.9476  EPtot      =   -139623.1231
 BOND   =      1188.1250  ANGLE   =      3069.4807  DIHED      =      4889.9285
 1-4 NB =      1412.1545  1-4 EEL =     16003.3390  VDWAALS    =     15595.3467
 EELEC  =   -181781.4976  EHBOND  =         0.0000  RESTRAINT  =         0.0000
 EKCMT  =         0.0000  VIRIAL  =         0.0000  VOLUME     =    462873.2384
                                                    Density    =         1.0293
 DV/DL  =        -6.6208
 ------------------------------------------------------------------------------

      R M S  F L U C T U A T I O N S

 NSTEP =   100000   TIME(PS) =     220.000  TEMP(K) =     1.43  PRESS =     0.0
 Etot   =       267.1542  EKtot   =       136.9892  EPtot      =       209.6366
 BOND   =        29.2445  ANGLE   =        42.4162  DIHED      =        24.9769
 1-4 NB =        15.5351  1-4 EEL =        42.7684  VDWAALS    =       184.6163
 EELEC  =       312.3043  EHBOND  =         0.0000  RESTRAINT  =         0.0000
 EKCMT  =         0.0000  VIRIAL  =         0.0000  VOLUME     =       802.2282
                                                    Density    =         0.0018
 DV/DL  =         1.4645
 ------------------------------------------------------------------------------

      DV/DL, AVERAGES OVER   50000 STEPS

 NSTEP =   100000   TIME(PS) =     220.000  TEMP(K) =     1.43  PRESS =     0.0
 Etot   =         0.0000  EKtot   =         0.0000  EPtot      =        -6.5551
 BOND   =         0.0000  ANGLE   =         0.0000  DIHED      =         0.0000
 1-4 NB =         0.0000  1-4 EEL =         0.0000  VDWAALS    =         0.0000
 EELEC  =         1.4899  EHBOND  =         0.0000  RESTRAINT  =         0.0000
 EKCMT  =         0.0000  VIRIAL  =         0.0000  VOLUME     =         0.0000
                                                    Density    =         0.0000
 DV/DL  =        -6.5551
 ------------------------------------------------------------------------------

      A V E R A G E S   O V E R   50000 S T E P S

 NSTEP =   500000   TIME(PS) =    1020.000  TEMP(K) =   297.89  PRESS =     0.0
 Etot   =   -111200.4016  EKtot   =     28483.1007  EPtot      =   -139683.5023
 BOND   =      1189.7001  ANGLE   =      3068.0612  DIHED      =      4871.4457
 1-4 NB =      1411.6367  1-4 EEL =     15980.6568  VDWAALS    =     15612.8527
 EELEC  =   -181817.8554  EHBOND  =         0.0000  RESTRAINT  =         0.0000
 EKCMT  =         0.0000  VIRIAL  =         0.0000  VOLUME     =    462519.4156
                                                    Density    =         1.0301
 DV/DL  =        -7.0168
 ------------------------------------------------------------------------------

      R M S  F L U C T U A T I O N S

 NSTEP =   500000   TIME(PS) =    1020.000  TEMP(K) =     1.32  PRESS =     0.0
 Etot   =       221.8504  EKtot   =       126.3240  EPtot      =       192.6912
 BOND   =        28.9469  ANGLE   =        41.8230  DIHED      =        24.1752
 1-4 NB =        15.2295  1-4 EEL =        40.8991  VDWAALS    =       190.4800
 EELEC  =       314.0926  EHBOND  =         0.0000  RESTRAINT  =         0.0000
 EKCMT  =         0.0000  VIRIAL  =         0.0000  VOLUME     =       925.4193
                                                    Density    =         0.0021
 DV/DL  =         1.5036
 ------------------------------------------------------------------------------

      A V E R A G E S   O V E R   50000 S T E P S

 NSTEP =   500000   TIME(PS) =    1020.000  TEMP(K) =   297.89  PRESS =     0.0
 Etot   =   -111200.4016  EKtot   =     28483.1007  EPtot      =   -139683.5023
 BOND   =      1189.7001  ANGLE   =      3068.0612  DIHED      =      4871.4457
 1-4 NB =      1411.6367  1-4 EEL =     15980.6568  VDWAALS    =     15612.8527
 EELEC  =   -181817.8554  EHBOND  =         0.0000  RESTRAINT  =         0.0000
 EKCMT  =         0.0000  VIRIAL  =         0.0000  VOLUME     =    462519.4156
                                                    Density    =         1.0301
 DV/DL  =        -7.0168
 ------------------------------------------------------------------------------

      R M S  F L U C T U A T I O N S

 NSTEP =   500000   TIME(PS) =    1020.000  TEMP(K) =     1.32  PRESS =     0.0
 Etot   =       221.8504  EKtot   =       126.3240  EPtot      =       192.6912
 BOND   =        28.9469  ANGLE   =        41.8230  DIHED      =        24.1752
 1-4 NB =        15.2295  1-4 EEL =        40.8991  VDWAALS    =       190.4800
 EELEC  =       314.0926  EHBOND  =         0.0000  RESTRAINT  =         0.0000
 EKCMT  =         0.0000  VIRIAL  =         0.0000  VOLUME     =       925.4193
                                                    Density    =         0.0021
 DV/DL  =         1.5036
 ------------------------------------------------------------------------------

      DV/DL, AVERAGES OVER   50000 STEPS

 NSTEP =   500000   TIME(PS) =    1020.000  TEMP(K) =     1.32  PRESS =     0.0
 Etot   =         0.0000  EKtot   =         0.0000  EPtot      =        -6.9470
 BOND   =         0.0000  ANGLE   =         0.0000  DIHED      =         0.0000
 1-4 NB =         0.0000  1-4 EEL =         0.0000  VDWAALS    =         0.0000
 EELEC  =         1.4899  EHBOND  =         0.0000  RESTRAINT  =         0.0000
 EKCMT  =         0.0000  VIRIAL  =         0.0000  VOLUME     =         0.0000
                                                    Density    =         0.0000
 DV/DL  =        -6.9470
 ------------------------------------------------------------------------------

      A V E R A G E S   O V E R  500000 S T E P S

 NSTEP =   500000   TIME(PS) =    1020.000  TEMP(K) =   297.86  PRESS =     0.0
 Etot   =   -111214.3843  EKtot   =     28480.5573  EPtot      =   -139694.9416
 BOND   =      1188.4331  ANGLE   =      3067.3175  DIHED      =      4883.3891
 1-4 NB =      1410.4846  1-4 EEL =     15992.9945  VDWAALS    =     15614.1507
 EELEC  =   -181851.7111  EHBOND  =         0.0000  RESTRAINT  =         0.0000
 EKCMT  =         0.0000  VIRIAL  =         0.0000  VOLUME     =    462648.4007
                                                    Density    =         1.0298
 DV/DL  =        -6.8814
 ------------------------------------------------------------------------------

      R M S  F L U C T U A T I O N S

 NSTEP =   500000   TIME(PS) =    1020.000  TEMP(K) =     3.53  PRESS =     0.0
 Etot   =      1005.4704  EKtot   =       337.8404  EPtot      =       696.6614
 BOND   =        31.5245  ANGLE   =        50.5541  DIHED      =        26.3882
 1-4 NB =        15.4762  1-4 EEL =        42.9763  VDWAALS    =       327.6899
 EELEC  =       942.7962  EHBOND  =         0.0000  RESTRAINT  =         0.0000
 EKCMT  =         0.0000  VIRIAL  =         0.0000  VOLUME     =      1042.2168
                                                    Density    =         0.0023
 DV/DL  =         1.4689
 ------------------------------------------------------------------------------

      A V E R A G E S   O V E R  500000 S T E P S

 NSTEP =   500000   TIME(PS) =    1020.000  TEMP(K) =   297.86  PRESS =     0.0
 Etot   =   -111214.3843  EKtot   =     28480.5573  EPtot      =   -139694.9416
 BOND   =      1188.4331  ANGLE   =      3067.3175  DIHED      =      4883.3891
 1-4 NB =      1410.4846  1-4 EEL =     15992.9945  VDWAALS    =     15614.1507
 EELEC  =   -181851.7111  EHBOND  =         0.0000  RESTRAINT  =         0.0000
 EKCMT  =         0.0000  VIRIAL  =         0.0000  VOLUME     =    462648.4007
                                                    Density    =         1.0298
 DV/DL  =        -6.8814
 ------------------------------------------------------------------------------

      R M S  F L U C T U A T I O N S

 NSTEP =   500000   TIME(PS) =    1020.000  TEMP(K) =     3.53  PRESS =     0.0
 Etot   =      1005.4704  EKtot   =       337.8404  EPtot      =       696.6614
 BOND   =        31.5245  ANGLE   =        50.5541  DIHED      =        26.3882
 1-4 NB =        15.4762  1-4 EEL =        42.9763  VDWAALS    =       327.6899
 EELEC  =       942.7962  EHBOND  =         0.0000  RESTRAINT  =         0.0000
 EKCMT  =         0.0000  VIRIAL  =         0.0000  VOLUME     =      1042.2168
                                                    Density    =         0.0023
 DV/DL  =         1.4689
 ------------------------------------------------------------------------------

      DV/DL, AVERAGES OVER  500000 STEPS

 NSTEP =   500000   TIME(PS) =    1020.000  TEMP(K) =     3.53  PRESS =     0.0
 Etot   =         0.0000  EKtot   =         0.0000  EPtot      =        -6.8127
 BOND   =         0.0000  ANGLE   =         0.0000  DIHED      =         0.0000
 1-4 NB =         0.0000  1-4 EEL =         0.0000  VDWAALS    =         0.0000
 EELEC  =         1.4899  EHBOND  =         0.0000  RESTRAINT  =         0.0000
 EKCMT  =         0.0000  VIRIAL  =         0.0000  VOLUME     =         0.0000
                                                    Density    =         0.0000
 DV/DL  =        -6.8127
 ------------------------------------------------------------------------------
