-------------------------------------------------------
          Amber 16 PMEMD                              2016
          -------------------------------------------------------

  [-O]verwriting output

File Assignments:

 Here is the input file:

TI/FEP, NpT, vdW+bonded transformation
 &cntrl
 ! please adjust namelist parameters to your needs!

 ! parameters for general MD
 imin = 0, nstlim = 500000, irest = 1, ntx = 5, dt = 0.002,
 ntt = 3, temp0 = 298.0, gamma_ln = 2.0, ig = -1,
 ntb = 2,
 ntp = 1, barostat = 2, pres0 = 1.01325, taup = 2.0,
 ntwe = 100, ntwx = 10000, ntpr = 1000, ntwr = 50000, ntave = 50000,
 ioutfm = 1, iwrap = 1, ntxo = 2,

 ! parameters for alchemical free energy simulation
 ntc = 2, ntf = 1,
 noshakemask = ':1,2',

 icfe = 1, ifsc = 1, clambda = 0.1150, scalpha = 0.5, scbeta = 12.0,
 ifmbar = 1, mbar_lambda = 0.0 0.0479 0.1150 0.2063 0.3160 0.4373 0.5626 0.6839
 mbar_states = 12, bar_intervall = 1000,   ! ntpr = bar_intervall for alchemica

 timask1=':1', timask2=':2',
scmask1=':1@H34',
scmask2=':2@Cl18',
 crgmask = ':1@H34 | :2@Cl18',
 /
 &ewald
 /

Note: ig = -1. Setting random seed to   502055 based on wallclock time in
      microseconds.

--------------------------------------------------------------------------------
   1.  RESOURCE   USE:
--------------------------------------------------------------------------------

 getting box info from netcdf restart file
 NATOM  =    4115 NTYPES =      13 NBONH =    4066 MBONA  =      55
 NTHETH =      78 MTHETA =      84 NPHIH =     153 MPHIA  =     133
 NHPARM =       0 NPARM  =       0 NNB   =    5842 NRES   =    1345
 NBONA  =      55 NTHETA =      84 NPHIA =     133 NUMBND =      22
 NUMANG =      35 NPTRA  =      14 NATYP =      17 NPHB   =       1
 IFBOX  =       1 NMXRS  =      43 IFCAP =       0 NEXTRA =       0
 NCOPY  =       0

     BOX TYPE: RECTILINEAR

--------------------------------------------------------------------------------
   2.  CONTROL  DATA  FOR  THE  RUN
--------------------------------------------------------------------------------

L0

General flags:
     imin    =       0, nmropt  =       0

Nature and format of input:
     ntx     =       5, irest   =       1, ntrx    =       1

Nature and format of output:
     ntxo    =       2, ntpr    =    1000, ntrx    =       1, ntwr    =   50000
     iwrap   =       1, ntwx    =   10000, ntwv    =       0, ntwe    =     100
     ioutfm  =       1, ntwprt  =       0, idecomp =       0, rbornstat=      0

Potential function:
     ntf     =       1, ntb     =       2, igb     =       0, nsnb    =      25
     ipol    =       0, gbsa    =       0, iesp    =       0
     dielc   =   1.00000, cut     =   8.00000, intdiel =   1.00000

Frozen or restrained atoms:
     ibelly  =       0, ntr     =       0

Molecular dynamics:
     nstlim  =    500000, nscm    =      1000, nrespa  =         1
     t       =   0.00000, dt      =   0.00200, vlimit  =  -1.00000

Langevin dynamics temperature regulation:
     ig      =  502055
     temp0   = 298.00000, tempi   =   0.00000, gamma_ln=   2.00000

Pressure regulation:
     ntp     =       1
     pres0   =   1.01325, comp    =  44.60000, taup    =   2.00000
     Monte-Carlo Barostat:
     mcbarint  =     100

SHAKE:
     ntc     =       2, jfastw  =       0
     tol     =   0.00001

Free energy options:
     icfe    =       1, ifsc    =       1, klambda =       1
     clambda =  0.1150, scalpha =  0.5000, scbeta  = 12.0000
     sceeorder =       2
     dynlmb =  0.0000 logdvdl =       0

FEP MBAR options:
     ifmbar  =       1,  bar_intervall =     1000
     mbar_states =      12

Ewald parameters:
     verbose =       0, ew_type =       0, nbflag  =       1, use_pme =       1
     vdwmeth =       1, eedmeth =       1, netfrc  =       1
     Box X =   32.703   Box Y =   37.439   Box Z =   33.758
     Alpha =   90.000   Beta  =   90.000   Gamma =   90.000
     NFFT1 =   36       NFFT2 =   40       NFFT3 =   36
     Cutoff=    8.000   Tol   =0.100E-04
     Ewald Coefficient =  0.34864
     Interpolation order =    4
     TI Mask 1 :1; matches     43 atoms
     TI Mask 2 :2; matches     43 atoms
     TI region 1:    4072 atoms
     TI region 2:    4072 atoms
     SC Mask 1 :1@H34; matches      1 atoms
     SC Mask 2 :2@Cl18; matches      1 atoms
Removing charge of       0.1510 from atom      43
Removing charge of      -0.0609 from atom      86
Total charge of   0.09010100 removed from       2 atoms

    MBAR - lambda values considered:
      12 total:  0.0000 0.0479 0.1150 0.2063 0.3160 0.4373 0.5626 0.6839 0.7936 0.8849 0.9520 1.0000
    Extra energies will be computed    500 times.
 Noshake mask :1,2; matches      86 atoms.

--------------------------------------------------------------------------------
   3.  ATOMIC COORDINATES AND VELOCITIES
--------------------------------------------------------------------------------

L0
 begin time read from input coords =    20.000 ps

     Molecule     1 is partially softcore
     Molecule     2 is partially softcore
 Number of triangulated 3-point waters found:     1343
   Removing shake constraints from C22   L0    1 -- H41   L0    1
   Removing shake constraints from C22   L0    1 -- H42   L0    1
   Removing shake constraints from C21   L0    1 -- H39   L0    1
   Removing shake constraints from C21   L0    1 -- H40   L0    1
   Removing shake constraints from C20   L0    1 -- H38   L0    1
   Removing shake constraints from C19   L0    1 -- H37   L0    1
   Removing shake constraints from C18   L0    1 -- H36   L0    1
   Removing shake constraints from C15   L0    1 -- H35   L0    1
   Removing shake constraints from C14   L0    1 -- H34   L0    1
   Removing shake constraints from C13   L0    1 -- H33   L0    1
   Removing shake constraints from C10   L0    1 -- H32   L0    1
   Removing shake constraints from C9    L0    1 -- H31   L0    1
   Removing shake constraints from C8    L0    1 -- H30   L0    1
   Removing shake constraints from N5    L0    1 -- H29   L0    1
   Removing shake constraints from N4    L0    1 -- H43   L0    1
   Removing shake constraints from N4    L0    1 -- H28   L0    1
   Removing shake constraints from C1    L0    1 -- H25   L0    1
   Removing shake constraints from C1    L0    1 -- H26   L0    1
   Removing shake constraints from C1    L0    1 -- H27   L0    1
   Removing shake constraints from C23   L1    2 -- H41   L1    2
   Removing shake constraints from C23   L1    2 -- H42   L1    2
   Removing shake constraints from C22   L1    2 -- H39   L1    2
   Removing shake constraints from C22   L1    2 -- H40   L1    2
   Removing shake constraints from C21   L1    2 -- H38   L1    2
   Removing shake constraints from C20   L1    2 -- H37   L1    2
   Removing shake constraints from C13   L1    2 -- H34   L1    2
   Removing shake constraints from C16   L1    2 -- H35   L1    2
   Removing shake constraints from C19   L1    2 -- H36   L1    2
   Removing shake constraints from C10   L1    2 -- H33   L1    2
   Removing shake constraints from C9    L1    2 -- H32   L1    2
   Removing shake constraints from C8    L1    2 -- H31   L1    2
   Removing shake constraints from N5    L1    2 -- H30   L1    2
   Removing shake constraints from N4    L1    2 -- H43   L1    2
   Removing shake constraints from N4    L1    2 -- H29   L1    2
   Removing shake constraints from C1    L1    2 -- H26   L1    2
   Removing shake constraints from C1    L1    2 -- H27   L1    2
   Removing shake constraints from C1    L1    2 -- H28   L1    2
 WARNING: SHAKEn bond for atoms       14       43 is partially softcore.
 Coordinates for common atoms will be synchronized from V0.
 Consider using noshake mask or disabling SHAKE.

 Number of shake restraints removed in TI region  1 :       19
 Number of shake restraints removed in TI region  2 :       18

     Sum of charges for TI region  1 =   0.84897300
     Assuming uniform neutralizing plasma

     Sum of charges for TI region  2 =   1.06096699
     Assuming uniform neutralizing plasma

--------------------------------------------------------------------------------
   4.  RESULTS
 NSTEP =     1000   TIME(PS) =      22.000  TEMP(K) =   285.48  PRESS =     0.0
 Etot   =    -10890.9956  EKtot   =      2317.1357  EPtot      =    -13208.1313
 BOND   =        18.0573  ANGLE   =        28.6262  DIHED      =        22.5567
 1-4 NB =         7.5739  1-4 EEL =       -69.1368  VDWAALS    =      1942.5516
 EELEC  =    -15158.3602  EHBOND  =         0.0000  RESTRAINT  =         0.0000
 EKCMT  =         0.0000  VIRIAL  =         0.0000  VOLUME     =     41503.6125
                                                    Density    =         0.9817
 DV/DL  =         1.8717
 ------------------------------------------------------------------------------

      A V E R A G E S   O V E R   50000 S T E P S

 NSTEP =    50000   TIME(PS) =     120.000  TEMP(K) =   297.09  PRESS =     0.0
 Etot   =    -10453.9447  EKtot   =      2411.4189  EPtot      =    -12865.3636
 BOND   =        17.8903  ANGLE   =        31.8982  DIHED      =        18.5057
 1-4 NB =         7.8729  1-4 EEL =       -67.0065  VDWAALS    =      1909.1148
 EELEC  =    -14783.6391  EHBOND  =         0.0000  RESTRAINT  =         0.0000
 EKCMT  =         0.0000  VIRIAL  =         0.0000  VOLUME     =     41327.1695
                                                    Density    =         0.9860
 DV/DL  =         3.0830
 ------------------------------------------------------------------------------

      R M S  F L U C T U A T I O N S

 NSTEP =    50000   TIME(PS) =     120.000  TEMP(K) =    10.62  PRESS =     0.0
 Etot   =       277.6412  EKtot   =        86.1977  EPtot      =       200.7186
 BOND   =         3.7915  ANGLE   =         3.1947  DIHED      =         2.7342
 1-4 NB =         0.8816  1-4 EEL =         1.8405  VDWAALS    =       104.9274
 EELEC  =       294.0281  EHBOND  =         0.0000  RESTRAINT  =         0.0000
 EKCMT  =         0.0000  VIRIAL  =         0.0000  VOLUME     =       358.8295
                                                    Density    =         0.0086
 DV/DL  =         2.0852
 ------------------------------------------------------------------------------

      A V E R A G E S   O V E R   50000 S T E P S

 NSTEP =    50000   TIME(PS) =     120.000  TEMP(K) =   297.10  PRESS =     0.0
 Etot   =    -10453.9109  EKtot   =      2411.4526  EPtot      =    -12865.3636
 BOND   =        17.8903  ANGLE   =        31.8982  DIHED      =        18.5057
 1-4 NB =         7.8729  1-4 EEL =       -67.0065  VDWAALS    =      1909.1148
 EELEC  =    -14783.6391  EHBOND  =         0.0000  RESTRAINT  =         0.0000
 EKCMT  =         0.0000  VIRIAL  =         0.0000  VOLUME     =     41327.1695
                                                    Density    =         0.9874
 DV/DL  =         3.0830
 ------------------------------------------------------------------------------

      R M S  F L U C T U A T I O N S

 NSTEP =    50000   TIME(PS) =     120.000  TEMP(K) =    10.61  PRESS =     0.0
 Etot   =       277.6030  EKtot   =        86.1413  EPtot      =       200.7186
 BOND   =         3.7915  ANGLE   =         3.1947  DIHED      =         2.7342
 1-4 NB =         0.8816  1-4 EEL =         1.8405  VDWAALS    =       104.9274
 EELEC  =       294.0281  EHBOND  =         0.0000  RESTRAINT  =         0.0000
 EKCMT  =         0.0000  VIRIAL  =         0.0000  VOLUME     =       358.8295
                                                    Density    =         0.0086
 DV/DL  =         2.0852
 ------------------------------------------------------------------------------

      DV/DL, AVERAGES OVER   50000 STEPS

 NSTEP =    50000   TIME(PS) =     120.000  TEMP(K) =    10.61  PRESS =     0.0
 Etot   =         0.0000  EKtot   =         0.0000  EPtot      =         3.0527
 BOND   =         0.0000  ANGLE   =         0.0000  DIHED      =         0.0000
 1-4 NB =         0.0000  1-4 EEL =         0.0000  VDWAALS    =        -0.2539
 EELEC  =        -0.2355  EHBOND  =         0.0000  RESTRAINT  =         0.0000
 EKCMT  =         0.0000  VIRIAL  =         0.0000  VOLUME     =         0.0000
                                                    Density    =         0.0000
 DV/DL  =         3.0527
 ------------------------------------------------------------------------------

      A V E R A G E S   O V E R   50000 S T E P S

 NSTEP =   100000   TIME(PS) =     220.000  TEMP(K) =   299.22  PRESS =     0.0
 Etot   =    -10401.0048  EKtot   =      2428.7065  EPtot      =    -12829.7113
 BOND   =        18.0588  ANGLE   =        31.8899  DIHED      =        18.3160
 1-4 NB =         7.8928  1-4 EEL =       -67.0055  VDWAALS    =      1895.2430
 EELEC  =    -14734.1063  EHBOND  =         0.0000  RESTRAINT  =         0.0000
 EKCMT  =         0.0000  VIRIAL  =         0.0000  VOLUME     =     41272.6096
                                                    Density    =         0.9872
 DV/DL  =         3.3310
 ------------------------------------------------------------------------------

      R M S  F L U C T U A T I O N S

 NSTEP =   100000   TIME(PS) =     220.000  TEMP(K) =     4.69  PRESS =     0.0
 Etot   =        69.1988  EKtot   =        38.1061  EPtot      =        56.1993
 BOND   =         3.8279  ANGLE   =         3.2148  DIHED      =         2.5636
 1-4 NB =         0.8613  1-4 EEL =         1.8608  VDWAALS    =        55.6327
 EELEC  =        89.6027  EHBOND  =         0.0000  RESTRAINT  =         0.0000
 EKCMT  =         0.0000  VIRIAL  =         0.0000  VOLUME     =       265.7526
                                                    Density    =         0.0064
 DV/DL  =         1.9729
 ------------------------------------------------------------------------------

      A V E R A G E S   O V E R   50000 S T E P S

 NSTEP =   100000   TIME(PS) =     220.000  TEMP(K) =   299.23  PRESS =     0.0
 Etot   =    -10400.9428  EKtot   =      2428.7685  EPtot      =    -12829.7113
 BOND   =        18.0588  ANGLE   =        31.8899  DIHED      =        18.3160
 1-4 NB =         7.8928  1-4 EEL =       -67.0055  VDWAALS    =      1895.2430
 EELEC  =    -14734.1063  EHBOND  =         0.0000  RESTRAINT  =         0.0000
 EKCMT  =         0.0000  VIRIAL  =         0.0000  VOLUME     =     41272.6096
                                                    Density    =         0.9886
 DV/DL  =         3.3310
 ------------------------------------------------------------------------------

      R M S  F L U C T U A T I O N S

 NSTEP =   100000   TIME(PS) =     220.000  TEMP(K) =     4.69  PRESS =     0.0
 Etot   =        69.1620  EKtot   =        38.0917  EPtot      =        56.1993
 BOND   =         3.8279  ANGLE   =         3.2148  DIHED      =         2.5636
 1-4 NB =         0.8613  1-4 EEL =         1.8608  VDWAALS    =        55.6327
 EELEC  =        89.6027  EHBOND  =         0.0000  RESTRAINT  =         0.0000
 EKCMT  =         0.0000  VIRIAL  =         0.0000  VOLUME     =       265.7526
                                                    Density    =         0.0064
 DV/DL  =         1.9729
 ------------------------------------------------------------------------------

      DV/DL, AVERAGES OVER   50000 STEPS

 NSTEP =   100000   TIME(PS) =     220.000  TEMP(K) =     4.69  PRESS =     0.0
 Etot   =         0.0000  EKtot   =         0.0000  EPtot      =         3.2983
 BOND   =         0.0000  ANGLE   =         0.0000  DIHED      =         0.0000
 1-4 NB =         0.0000  1-4 EEL =         0.0000  VDWAALS    =        -0.2543
 EELEC  =        -0.2355  EHBOND  =         0.0000  RESTRAINT  =         0.0000
 EKCMT  =         0.0000  VIRIAL  =         0.0000  VOLUME     =         0.0000
                                                    Density    =         0.0000
 DV/DL  =         3.2983
 ------------------------------------------------------------------------------

      A V E R A G E S   O V E R   50000 S T E P S

 NSTEP =   500000   TIME(PS) =    1020.000  TEMP(K) =   298.66  PRESS =     0.0
 Etot   =    -10418.8050  EKtot   =      2424.1508  EPtot      =    -12842.9558
 BOND   =        18.0251  ANGLE   =        32.0116  DIHED      =        19.0679
 1-4 NB =         7.8039  1-4 EEL =       -70.6608  VDWAALS    =      1901.8134
 EELEC  =    -14751.0168  EHBOND  =         0.0000  RESTRAINT  =         0.0000
 EKCMT  =         0.0000  VIRIAL  =         0.0000  VOLUME     =     41191.2089
                                                    Density    =         0.9892
 DV/DL  =         3.1052
 ------------------------------------------------------------------------------

      R M S  F L U C T U A T I O N S

 NSTEP =   500000   TIME(PS) =    1020.000  TEMP(K) =     4.68  PRESS =     0.0
 Etot   =        66.4323  EKtot   =        37.9970  EPtot      =        55.1243
 BOND   =         3.7846  ANGLE   =         3.1580  DIHED      =         2.8395
 1-4 NB =         0.8327  1-4 EEL =         1.9416  VDWAALS    =        54.3956
 EELEC  =        88.4566  EHBOND  =         0.0000  RESTRAINT  =         0.0000
 EKCMT  =         0.0000  VIRIAL  =         0.0000  VOLUME     =       252.1701
                                                    Density    =         0.0061
 DV/DL  =         2.0167
 ------------------------------------------------------------------------------

      A V E R A G E S   O V E R   50000 S T E P S

 NSTEP =   500000   TIME(PS) =    1020.000  TEMP(K) =   298.66  PRESS =     0.0
 Etot   =    -10418.8262  EKtot   =      2424.1296  EPtot      =    -12842.9558
 BOND   =        18.0251  ANGLE   =        32.0116  DIHED      =        19.0679
 1-4 NB =         7.8039  1-4 EEL =       -70.6608  VDWAALS    =      1901.8134
 EELEC  =    -14751.0168  EHBOND  =         0.0000  RESTRAINT  =         0.0000
 EKCMT  =         0.0000  VIRIAL  =         0.0000  VOLUME     =     41191.2089
                                                    Density    =         0.9906
 DV/DL  =         3.1052
 ------------------------------------------------------------------------------

      R M S  F L U C T U A T I O N S

 NSTEP =   500000   TIME(PS) =    1020.000  TEMP(K) =     4.68  PRESS =     0.0
 Etot   =        66.4761  EKtot   =        38.0153  EPtot      =        55.1243
 BOND   =         3.7846  ANGLE   =         3.1580  DIHED      =         2.8395
 1-4 NB =         0.8327  1-4 EEL =         1.9416  VDWAALS    =        54.3956
 EELEC  =        88.4566  EHBOND  =         0.0000  RESTRAINT  =         0.0000
 EKCMT  =         0.0000  VIRIAL  =         0.0000  VOLUME     =       252.1701
                                                    Density    =         0.0061
 DV/DL  =         2.0167
 ------------------------------------------------------------------------------

      DV/DL, AVERAGES OVER   50000 STEPS

 NSTEP =   500000   TIME(PS) =    1020.000  TEMP(K) =     4.68  PRESS =     0.0
 Etot   =         0.0000  EKtot   =         0.0000  EPtot      =         3.0736
 BOND   =         0.0000  ANGLE   =         0.0000  DIHED      =         0.0000
 1-4 NB =         0.0000  1-4 EEL =         0.0000  VDWAALS    =        -0.2548
 EELEC  =        -0.2356  EHBOND  =         0.0000  RESTRAINT  =         0.0000
 EKCMT  =         0.0000  VIRIAL  =         0.0000  VOLUME     =         0.0000
                                                    Density    =         0.0000
 DV/DL  =         3.0736
 ------------------------------------------------------------------------------

      A V E R A G E S   O V E R  500000 S T E P S

 NSTEP =   500000   TIME(PS) =    1020.000  TEMP(K) =   298.52  PRESS =     0.0
 Etot   =    -10420.1223  EKtot   =      2422.9597  EPtot      =    -12843.0820
 BOND   =        18.0008  ANGLE   =        32.2108  DIHED      =        18.4789
 1-4 NB =         7.9073  1-4 EEL =       -68.1328  VDWAALS    =      1899.5713
 EELEC  =    -14751.1183  EHBOND  =         0.0000  RESTRAINT  =         0.0000
 EKCMT  =         0.0000  VIRIAL  =         0.0000  VOLUME     =     41247.0365
                                                    Density    =         0.9879
 DV/DL  =         3.1619
 ------------------------------------------------------------------------------

      R M S  F L U C T U A T I O N S

 NSTEP =   500000   TIME(PS) =    1020.000  TEMP(K) =     5.58  PRESS =     0.0
 Etot   =       110.0093  EKtot   =        45.2721  EPtot      =        83.7795
 BOND   =         3.7958  ANGLE   =         3.2513  DIHED      =         2.6699
 1-4 NB =         0.8754  1-4 EEL =         2.6819  VDWAALS    =        62.9259
 EELEC  =       127.3376  EHBOND  =         0.0000  RESTRAINT  =         0.0000
 EKCMT  =         0.0000  VIRIAL  =         0.0000  VOLUME     =       311.0137
                                                    Density    =         0.0074
 DV/DL  =         2.0562
 ------------------------------------------------------------------------------

      A V E R A G E S   O V E R  500000 S T E P S

 NSTEP =   500000   TIME(PS) =    1020.000  TEMP(K) =   298.52  PRESS =     0.0
 Etot   =    -10420.1064  EKtot   =      2422.9756  EPtot      =    -12843.0820
 BOND   =        18.0008  ANGLE   =        32.2108  DIHED      =        18.4789
 1-4 NB =         7.9073  1-4 EEL =       -68.1328  VDWAALS    =      1899.5713
 EELEC  =    -14751.1183  EHBOND  =         0.0000  RESTRAINT  =         0.0000
 EKCMT  =         0.0000  VIRIAL  =         0.0000  VOLUME     =     41247.0365
                                                    Density    =         0.9893
 DV/DL  =         3.1619
 ------------------------------------------------------------------------------

      R M S  F L U C T U A T I O N S

 NSTEP =   500000   TIME(PS) =    1020.000  TEMP(K) =     5.58  PRESS =     0.0
 Etot   =       110.0020  EKtot   =        45.2597  EPtot      =        83.7795
 BOND   =         3.7958  ANGLE   =         3.2513  DIHED      =         2.6699
 1-4 NB =         0.8754  1-4 EEL =         2.6819  VDWAALS    =        62.9259
 EELEC  =       127.3376  EHBOND  =         0.0000  RESTRAINT  =         0.0000
 EKCMT  =         0.0000  VIRIAL  =         0.0000  VOLUME     =       311.0137
                                                    Density    =         0.0075
 DV/DL  =         2.0562
 ------------------------------------------------------------------------------

      DV/DL, AVERAGES OVER  500000 STEPS

 NSTEP =   500000   TIME(PS) =    1020.000  TEMP(K) =     5.58  PRESS =     0.0
 Etot   =         0.0000  EKtot   =         0.0000  EPtot      =         3.1303
 BOND   =         0.0000  ANGLE   =         0.0000  DIHED      =         0.0000
 1-4 NB =         0.0000  1-4 EEL =         0.0000  VDWAALS    =        -0.2544
 EELEC  =        -0.2356  EHBOND  =         0.0000  RESTRAINT  =         0.0000
 EKCMT  =         0.0000  VIRIAL  =         0.0000  VOLUME     =         0.0000
                                                    Density    =         0.0000
 DV/DL  =         3.1303
 ------------------------------------------------------------------------------
