-------------------------------------------------------
          Amber 16 PMEMD                              2016
          -------------------------------------------------------

  [-O]verwriting output

File Assignments:

 Here is the input file:

TI/FEP, NpT, vdW+bonded transformation
 &cntrl
 ! please adjust namelist parameters to your needs!

 ! parameters for general MD
 imin = 0, nstlim = 500000, irest = 1, ntx = 5, dt = 0.002,
 ntt = 3, temp0 = 298.0, gamma_ln = 2.0, ig = -1,
 ntb = 2,
 ntp = 1, barostat = 2, pres0 = 1.01325, taup = 2.0,
 ntwe = 100, ntwx = 10000, ntpr = 1000, ntwr = 50000, ntave = 50000,
 ioutfm = 1, iwrap = 1, ntxo = 2,

 ! parameters for alchemical free energy simulation
 ntc = 2, ntf = 1,
 noshakemask = ':1,2',

 icfe = 1, ifsc = 1, clambda = 0.5626, scalpha = 0.5, scbeta = 12.0,
 ifmbar = 1, mbar_lambda = 0.0 0.0479 0.1150 0.2063 0.3160 0.4373 0.5626 0.6839
 mbar_states = 12, bar_intervall = 1000,   ! ntpr = bar_intervall for alchemica

 timask1=':1', timask2=':2',
scmask1=':1@H34',
scmask2=':2@Cl18',
 crgmask = ':1@H34 | :2@Cl18',
 /
 &ewald
 /

Note: ig = -1. Setting random seed to   810545 based on wallclock time in
      microseconds.

--------------------------------------------------------------------------------
   1.  RESOURCE   USE:
--------------------------------------------------------------------------------

 getting box info from netcdf restart file
 NATOM  =   46594 NTYPES =      28 NBONH =   43475 MBONA  =    3194
 NTHETH =    6827 MTHETA =    4353 NPHIH =   13979 MPHIA  =   13703
 NHPARM =       0 NPARM  =       0 NNB   =   87745 NRES   =   13889
 NBONA  =    3194 NTHETA =    4353 NPHIA =   13703 NUMBND =      89
 NUMANG =     195 NPTRA  =     203 NATYP =      50 NPHB   =       1
 IFBOX  =       1 NMXRS  =      43 IFCAP =       0 NEXTRA =       0
 NCOPY  =       0

     BOX TYPE: RECTILINEAR

--------------------------------------------------------------------------------
   2.  CONTROL  DATA  FOR  THE  RUN
--------------------------------------------------------------------------------

L0

General flags:
     imin    =       0, nmropt  =       0

Nature and format of input:
     ntx     =       5, irest   =       1, ntrx    =       1

Nature and format of output:
     ntxo    =       2, ntpr    =    1000, ntrx    =       1, ntwr    =   50000
     iwrap   =       1, ntwx    =   10000, ntwv    =       0, ntwe    =     100
     ioutfm  =       1, ntwprt  =       0, idecomp =       0, rbornstat=      0

Potential function:
     ntf     =       1, ntb     =       2, igb     =       0, nsnb    =      25
     ipol    =       0, gbsa    =       0, iesp    =       0
     dielc   =   1.00000, cut     =   8.00000, intdiel =   1.00000

Frozen or restrained atoms:
     ibelly  =       0, ntr     =       0

Molecular dynamics:
     nstlim  =    500000, nscm    =      1000, nrespa  =         1
     t       =   0.00000, dt      =   0.00200, vlimit  =  -1.00000

Langevin dynamics temperature regulation:
     ig      =  810545
     temp0   = 298.00000, tempi   =   0.00000, gamma_ln=   2.00000

Pressure regulation:
     ntp     =       1
     pres0   =   1.01325, comp    =  44.60000, taup    =   2.00000
     Monte-Carlo Barostat:
     mcbarint  =     100

SHAKE:
     ntc     =       2, jfastw  =       0
     tol     =   0.00001

Free energy options:
     icfe    =       1, ifsc    =       1, klambda =       1
     clambda =  0.5626, scalpha =  0.5000, scbeta  = 12.0000
     sceeorder =       2
     dynlmb =  0.0000 logdvdl =       0

FEP MBAR options:
     ifmbar  =       1,  bar_intervall =     1000
     mbar_states =      12

Ewald parameters:
     verbose =       0, ew_type =       0, nbflag  =       1, use_pme =       1
     vdwmeth =       1, eedmeth =       1, netfrc  =       1
     Box X =   87.894   Box Y =   67.207   Box Z =   78.608
     Alpha =   90.000   Beta  =   90.000   Gamma =   90.000
     NFFT1 =   96       NFFT2 =   64       NFFT3 =   80
     Cutoff=    8.000   Tol   =0.100E-04
     Ewald Coefficient =  0.34864
     Interpolation order =    4
     TI Mask 1 :1; matches     43 atoms
     TI Mask 2 :2; matches     43 atoms
     TI region 1:   46551 atoms
     TI region 2:   46551 atoms
     SC Mask 1 :1@H34; matches      1 atoms
     SC Mask 2 :2@Cl18; matches      1 atoms
Removing charge of       0.1510 from atom      43
Removing charge of      -0.0609 from atom      86
Total charge of   0.09010100 removed from       2 atoms

    MBAR - lambda values considered:
      12 total:  0.0000 0.0479 0.1150 0.2063 0.3160 0.4373 0.5626 0.6839 0.7936 0.8849 0.9520 1.0000
    Extra energies will be computed    500 times.
 Noshake mask :1,2; matches      86 atoms.

--------------------------------------------------------------------------------
   3.  ATOMIC COORDINATES AND VELOCITIES
--------------------------------------------------------------------------------

L0
 begin time read from input coords =    20.000 ps

     Molecule     1 is partially softcore
     Molecule     2 is partially softcore
 Number of triangulated 3-point waters found:    13488
   Removing shake constraints from C22   L0    1 -- H41   L0    1
   Removing shake constraints from C22   L0    1 -- H42   L0    1
   Removing shake constraints from C21   L0    1 -- H39   L0    1
   Removing shake constraints from C21   L0    1 -- H40   L0    1
   Removing shake constraints from C20   L0    1 -- H38   L0    1
   Removing shake constraints from C19   L0    1 -- H37   L0    1
   Removing shake constraints from C18   L0    1 -- H36   L0    1
   Removing shake constraints from C15   L0    1 -- H35   L0    1
   Removing shake constraints from C14   L0    1 -- H34   L0    1
   Removing shake constraints from C13   L0    1 -- H33   L0    1
   Removing shake constraints from C10   L0    1 -- H32   L0    1
   Removing shake constraints from C9    L0    1 -- H31   L0    1
   Removing shake constraints from C8    L0    1 -- H30   L0    1
   Removing shake constraints from N5    L0    1 -- H29   L0    1
   Removing shake constraints from N4    L0    1 -- H43   L0    1
   Removing shake constraints from N4    L0    1 -- H28   L0    1
   Removing shake constraints from C1    L0    1 -- H25   L0    1
   Removing shake constraints from C1    L0    1 -- H26   L0    1
   Removing shake constraints from C1    L0    1 -- H27   L0    1
   Removing shake constraints from C23   L1    2 -- H41   L1    2
   Removing shake constraints from C23   L1    2 -- H42   L1    2
   Removing shake constraints from C22   L1    2 -- H39   L1    2
   Removing shake constraints from C22   L1    2 -- H40   L1    2
   Removing shake constraints from C21   L1    2 -- H38   L1    2
   Removing shake constraints from C20   L1    2 -- H37   L1    2
   Removing shake constraints from C13   L1    2 -- H34   L1    2
   Removing shake constraints from C16   L1    2 -- H35   L1    2
   Removing shake constraints from C19   L1    2 -- H36   L1    2
   Removing shake constraints from C10   L1    2 -- H33   L1    2
   Removing shake constraints from C9    L1    2 -- H32   L1    2
   Removing shake constraints from C8    L1    2 -- H31   L1    2
   Removing shake constraints from N5    L1    2 -- H30   L1    2
   Removing shake constraints from N4    L1    2 -- H43   L1    2
   Removing shake constraints from N4    L1    2 -- H29   L1    2
   Removing shake constraints from C1    L1    2 -- H26   L1    2
   Removing shake constraints from C1    L1    2 -- H27   L1    2
   Removing shake constraints from C1    L1    2 -- H28   L1    2
 WARNING: SHAKEn bond for atoms       14       43 is partially softcore.
 Coordinates for common atoms will be synchronized from V0.
 Consider using noshake mask or disabling SHAKE.

 Number of shake restraints removed in TI region  1 :       19
 Number of shake restraints removed in TI region  2 :       18

     Sum of charges for TI region  1 =  -0.15102723
     Assuming uniform neutralizing plasma

     Sum of charges for TI region  2 =   0.06096676
     Assuming uniform neutralizing plasma

--------------------------------------------------------------------------------
   4.  RESULTS
 NSTEP =     1000   TIME(PS) =      22.000  TEMP(K) =   285.94  PRESS =     0.0
 Etot   =   -116903.1418  EKtot   =     27330.0020  EPtot      =   -144233.1438
 BOND   =      1181.7794  ANGLE   =      3028.5771  DIHED      =      4884.0859
 1-4 NB =      1408.3933  1-4 EEL =     15980.2663  VDWAALS    =     17375.0554
 EELEC  =   -188091.3013  EHBOND  =         0.0000  RESTRAINT  =         0.0000
 EKCMT  =         0.0000  VIRIAL  =         0.0000  VOLUME     =    464342.7282
                                                    Density    =         1.0261
 DV/DL  =         1.1354
 ------------------------------------------------------------------------------

      A V E R A G E S   O V E R   50000 S T E P S

 NSTEP =    50000   TIME(PS) =     120.000  TEMP(K) =   296.90  PRESS =     0.0
 Etot   =   -111531.9252  EKtot   =     28377.9044  EPtot      =   -139909.8296
 BOND   =      1186.3151  ANGLE   =      3062.7756  DIHED      =      4897.5717
 1-4 NB =      1410.7688  1-4 EEL =     15982.5848  VDWAALS    =     15712.7819
 EELEC  =   -182162.6274  EHBOND  =         0.0000  RESTRAINT  =         0.0000
 EKCMT  =         0.0000  VIRIAL  =         0.0000  VOLUME     =    463105.4531
                                                    Density    =         1.0288
 DV/DL  =         1.5306
 ------------------------------------------------------------------------------

      R M S  F L U C T U A T I O N S

 NSTEP =    50000   TIME(PS) =     120.000  TEMP(K) =    10.29  PRESS =     0.0
 Etot   =      3098.4106  EKtot   =       983.6029  EPtot      =      2136.4594
 BOND   =        48.6071  ANGLE   =        97.8169  DIHED      =        34.7277
 1-4 NB =        16.0335  1-4 EEL =        41.9756  VDWAALS    =       874.6474
 EELEC  =      2848.5529  EHBOND  =         0.0000  RESTRAINT  =         0.0000
 EKCMT  =         0.0000  VIRIAL  =         0.0000  VOLUME     =       852.3266
                                                    Density    =         0.0019
 DV/DL  =         3.4518
 ------------------------------------------------------------------------------

      A V E R A G E S   O V E R   50000 S T E P S

 NSTEP =    50000   TIME(PS) =     120.000  TEMP(K) =   296.90  PRESS =     0.0
 Etot   =   -111531.8737  EKtot   =     28377.9559  EPtot      =   -139909.8296
 BOND   =      1186.3151  ANGLE   =      3062.7756  DIHED      =      4897.5717
 1-4 NB =      1410.7688  1-4 EEL =     15982.5848  VDWAALS    =     15712.7819
 EELEC  =   -182162.6274  EHBOND  =         0.0000  RESTRAINT  =         0.0000
 EKCMT  =         0.0000  VIRIAL  =         0.0000  VOLUME     =    463105.4531
                                                    Density    =         1.0289
 DV/DL  =         1.5306
 ------------------------------------------------------------------------------

      R M S  F L U C T U A T I O N S

 NSTEP =    50000   TIME(PS) =     120.000  TEMP(K) =    10.29  PRESS =     0.0
 Etot   =      3098.4143  EKtot   =       983.6058  EPtot      =      2136.4594
 BOND   =        48.6071  ANGLE   =        97.8169  DIHED      =        34.7277
 1-4 NB =        16.0335  1-4 EEL =        41.9756  VDWAALS    =       874.6474
 EELEC  =      2848.5529  EHBOND  =         0.0000  RESTRAINT  =         0.0000
 EKCMT  =         0.0000  VIRIAL  =         0.0000  VOLUME     =       852.3266
                                                    Density    =         0.0019
 DV/DL  =         3.4518
 ------------------------------------------------------------------------------

      DV/DL, AVERAGES OVER   50000 STEPS

 NSTEP =    50000   TIME(PS) =     120.000  TEMP(K) =    10.29  PRESS =     0.0
 Etot   =         0.0000  EKtot   =         0.0000  EPtot      =         1.5171
 BOND   =         0.0000  ANGLE   =         0.0000  DIHED      =         0.0000
 1-4 NB =         0.0000  1-4 EEL =         0.0000  VDWAALS    =        -0.2833
 EELEC  =        -0.1933  EHBOND  =         0.0000  RESTRAINT  =         0.0000
 EKCMT  =         0.0000  VIRIAL  =         0.0000  VOLUME     =         0.0000
                                                    Density    =         0.0000
 DV/DL  =         1.5171
 ------------------------------------------------------------------------------

      A V E R A G E S   O V E R   50000 S T E P S

 NSTEP =   100000   TIME(PS) =     220.000  TEMP(K) =   298.22  PRESS =     0.0
 Etot   =   -111138.5962  EKtot   =     28503.9306  EPtot      =   -139642.5268
 BOND   =      1188.0067  ANGLE   =      3066.8515  DIHED      =      4896.5212
 1-4 NB =      1412.9757  1-4 EEL =     16013.2648  VDWAALS    =     15570.8712
 EELEC  =   -181791.0179  EHBOND  =         0.0000  RESTRAINT  =         0.0000
 EKCMT  =         0.0000  VIRIAL  =         0.0000  VOLUME     =    462801.4926
                                                    Density    =         1.0295
 DV/DL  =         1.8843
 ------------------------------------------------------------------------------

      R M S  F L U C T U A T I O N S

 NSTEP =   100000   TIME(PS) =     220.000  TEMP(K) =     1.32  PRESS =     0.0
 Etot   =       226.4081  EKtot   =       126.4091  EPtot      =       186.6110
 BOND   =        28.4823  ANGLE   =        41.2192  DIHED      =        23.4940
 1-4 NB =        15.3397  1-4 EEL =        42.6080  VDWAALS    =       186.3897
 EELEC  =       295.1453  EHBOND  =         0.0000  RESTRAINT  =         0.0000
 EKCMT  =         0.0000  VIRIAL  =         0.0000  VOLUME     =       721.4439
                                                    Density    =         0.0016
 DV/DL  =         3.7943
 ------------------------------------------------------------------------------

      A V E R A G E S   O V E R   50000 S T E P S

 NSTEP =   100000   TIME(PS) =     220.000  TEMP(K) =   298.22  PRESS =     0.0
 Etot   =   -111138.6044  EKtot   =     28503.9223  EPtot      =   -139642.5268
 BOND   =      1188.0067  ANGLE   =      3066.8515  DIHED      =      4896.5212
 1-4 NB =      1412.9757  1-4 EEL =     16013.2648  VDWAALS    =     15570.8712
 EELEC  =   -181791.0179  EHBOND  =         0.0000  RESTRAINT  =         0.0000
 EKCMT  =         0.0000  VIRIAL  =         0.0000  VOLUME     =    462801.4926
                                                    Density    =         1.0296
 DV/DL  =         1.8843
 ------------------------------------------------------------------------------

      R M S  F L U C T U A T I O N S

 NSTEP =   100000   TIME(PS) =     220.000  TEMP(K) =     1.32  PRESS =     0.0
 Etot   =       226.3136  EKtot   =       126.3538  EPtot      =       186.6110
 BOND   =        28.4823  ANGLE   =        41.2192  DIHED      =        23.4940
 1-4 NB =        15.3397  1-4 EEL =        42.6080  VDWAALS    =       186.3897
 EELEC  =       295.1453  EHBOND  =         0.0000  RESTRAINT  =         0.0000
 EKCMT  =         0.0000  VIRIAL  =         0.0000  VOLUME     =       721.4439
                                                    Density    =         0.0016
 DV/DL  =         3.7943
 ------------------------------------------------------------------------------

      DV/DL, AVERAGES OVER   50000 STEPS

 NSTEP =   100000   TIME(PS) =     220.000  TEMP(K) =     1.32  PRESS =     0.0
 Etot   =         0.0000  EKtot   =         0.0000  EPtot      =         1.8655
 BOND   =         0.0000  ANGLE   =         0.0000  DIHED      =         0.0000
 1-4 NB =         0.0000  1-4 EEL =         0.0000  VDWAALS    =        -0.2835
 EELEC  =        -0.1933  EHBOND  =         0.0000  RESTRAINT  =         0.0000
 EKCMT  =         0.0000  VIRIAL  =         0.0000  VOLUME     =         0.0000
                                                    Density    =         0.0000
 DV/DL  =         1.8655
 ------------------------------------------------------------------------------

      A V E R A G E S   O V E R   50000 S T E P S

 NSTEP =   500000   TIME(PS) =    1020.000  TEMP(K) =   298.00  PRESS =     0.0
 Etot   =   -111230.5090  EKtot   =     28482.8341  EPtot      =   -139713.3431
 BOND   =      1188.1410  ANGLE   =      3062.8971  DIHED      =      4899.7156
 1-4 NB =      1414.3188  1-4 EEL =     16027.1413  VDWAALS    =     15620.2637
 EELEC  =   -181925.8206  EHBOND  =         0.0000  RESTRAINT  =         0.0000
 EKCMT  =         0.0000  VIRIAL  =         0.0000  VOLUME     =    462241.9596
                                                    Density    =         1.0307
 DV/DL  =         1.6157
 ------------------------------------------------------------------------------

      R M S  F L U C T U A T I O N S

 NSTEP =   500000   TIME(PS) =    1020.000  TEMP(K) =     1.34  PRESS =     0.0
 Etot   =       205.7635  EKtot   =       128.3533  EPtot      =       168.9972
 BOND   =        29.3200  ANGLE   =        42.6860  DIHED      =        23.4221
 1-4 NB =        14.9587  1-4 EEL =        41.5014  VDWAALS    =       178.0766
 EELEC  =       264.3295  EHBOND  =         0.0000  RESTRAINT  =         0.0000
 EKCMT  =         0.0000  VIRIAL  =         0.0000  VOLUME     =       947.5013
                                                    Density    =         0.0021
 DV/DL  =         3.4513
 ------------------------------------------------------------------------------

      A V E R A G E S   O V E R   50000 S T E P S

 NSTEP =   500000   TIME(PS) =    1020.000  TEMP(K) =   298.00  PRESS =     0.0
 Etot   =   -111230.4740  EKtot   =     28482.8691  EPtot      =   -139713.3431
 BOND   =      1188.1410  ANGLE   =      3062.8971  DIHED      =      4899.7156
 1-4 NB =      1414.3188  1-4 EEL =     16027.1413  VDWAALS    =     15620.2637
 EELEC  =   -181925.8206  EHBOND  =         0.0000  RESTRAINT  =         0.0000
 EKCMT  =         0.0000  VIRIAL  =         0.0000  VOLUME     =    462241.9596
                                                    Density    =         1.0309
 DV/DL  =         1.6157
 ------------------------------------------------------------------------------

      R M S  F L U C T U A T I O N S

 NSTEP =   500000   TIME(PS) =    1020.000  TEMP(K) =     1.34  PRESS =     0.0
 Etot   =       205.7403  EKtot   =       128.3341  EPtot      =       168.9972
 BOND   =        29.3200  ANGLE   =        42.6860  DIHED      =        23.4221
 1-4 NB =        14.9587  1-4 EEL =        41.5014  VDWAALS    =       178.0766
 EELEC  =       264.3295  EHBOND  =         0.0000  RESTRAINT  =         0.0000
 EKCMT  =         0.0000  VIRIAL  =         0.0000  VOLUME     =       947.5013
                                                    Density    =         0.0021
 DV/DL  =         3.4513
 ------------------------------------------------------------------------------

      DV/DL, AVERAGES OVER   50000 STEPS

 NSTEP =   500000   TIME(PS) =    1020.000  TEMP(K) =     1.34  PRESS =     0.0
 Etot   =         0.0000  EKtot   =         0.0000  EPtot      =         1.5993
 BOND   =         0.0000  ANGLE   =         0.0000  DIHED      =         0.0000
 1-4 NB =         0.0000  1-4 EEL =         0.0000  VDWAALS    =        -0.2839
 EELEC  =        -0.1933  EHBOND  =         0.0000  RESTRAINT  =         0.0000
 EKCMT  =         0.0000  VIRIAL  =         0.0000  VOLUME     =         0.0000
                                                    Density    =         0.0000
 DV/DL  =         1.5993
 ------------------------------------------------------------------------------

      A V E R A G E S   O V E R  500000 S T E P S

 NSTEP =   500000   TIME(PS) =    1020.000  TEMP(K) =   297.93  PRESS =     0.0
 Etot   =   -111252.7589  EKtot   =     28476.2792  EPtot      =   -139729.0382
 BOND   =      1188.6690  ANGLE   =      3066.2665  DIHED      =      4890.8217
 1-4 NB =      1412.4421  1-4 EEL =     16008.0704  VDWAALS    =     15625.9207
 EELEC  =   -181921.2285  EHBOND  =         0.0000  RESTRAINT  =         0.0000
 EKCMT  =         0.0000  VIRIAL  =         0.0000  VOLUME     =    462646.6502
                                                    Density    =         1.0298
 DV/DL  =         1.4540
 ------------------------------------------------------------------------------

      R M S  F L U C T U A T I O N S

 NSTEP =   500000   TIME(PS) =    1020.000  TEMP(K) =     3.52  PRESS =     0.0
 Etot   =      1006.7843  EKtot   =       336.0729  EPtot      =       700.0871
 BOND   =        31.3735  ANGLE   =        50.3515  DIHED      =        26.2275
 1-4 NB =        15.4835  1-4 EEL =        43.8798  VDWAALS    =       328.1032
 EELEC  =       944.4936  EHBOND  =         0.0000  RESTRAINT  =         0.0000
 EKCMT  =         0.0000  VIRIAL  =         0.0000  VOLUME     =       865.4807
                                                    Density    =         0.0019
 DV/DL  =         3.3397
 ------------------------------------------------------------------------------

      A V E R A G E S   O V E R  500000 S T E P S

 NSTEP =   500000   TIME(PS) =    1020.000  TEMP(K) =   297.93  PRESS =     0.0
 Etot   =   -111252.7536  EKtot   =     28476.2846  EPtot      =   -139729.0382
 BOND   =      1188.6690  ANGLE   =      3066.2665  DIHED      =      4890.8217
 1-4 NB =      1412.4421  1-4 EEL =     16008.0704  VDWAALS    =     15625.9207
 EELEC  =   -181921.2285  EHBOND  =         0.0000  RESTRAINT  =         0.0000
 EKCMT  =         0.0000  VIRIAL  =         0.0000  VOLUME     =    462646.6502
                                                    Density    =         1.0300
 DV/DL  =         1.4540
 ------------------------------------------------------------------------------

      R M S  F L U C T U A T I O N S

 NSTEP =   500000   TIME(PS) =    1020.000  TEMP(K) =     3.52  PRESS =     0.0
 Etot   =      1006.7811  EKtot   =       336.0688  EPtot      =       700.0871
 BOND   =        31.3735  ANGLE   =        50.3515  DIHED      =        26.2275
 1-4 NB =        15.4835  1-4 EEL =        43.8798  VDWAALS    =       328.1032
 EELEC  =       944.4936  EHBOND  =         0.0000  RESTRAINT  =         0.0000
 EKCMT  =         0.0000  VIRIAL  =         0.0000  VOLUME     =       865.4807
                                                    Density    =         0.0019
 DV/DL  =         3.3397
 ------------------------------------------------------------------------------

      DV/DL, AVERAGES OVER  500000 STEPS

 NSTEP =   500000   TIME(PS) =    1020.000  TEMP(K) =     3.52  PRESS =     0.0
 Etot   =         0.0000  EKtot   =         0.0000  EPtot      =         1.4396
 BOND   =         0.0000  ANGLE   =         0.0000  DIHED      =         0.0000
 1-4 NB =         0.0000  1-4 EEL =         0.0000  VDWAALS    =        -0.2836
 EELEC  =        -0.1933  EHBOND  =         0.0000  RESTRAINT  =         0.0000
 EKCMT  =         0.0000  VIRIAL  =         0.0000  VOLUME     =         0.0000
                                                    Density    =         0.0000
 DV/DL  =         1.4396
 ------------------------------------------------------------------------------
