-------------------------------------------------------
          Amber 16 PMEMD                              2016
          -------------------------------------------------------

  [-O]verwriting output

File Assignments:

 Here is the input file:

TI/FEP, NpT, vdW+bonded transformation
 &cntrl
 ! please adjust namelist parameters to your needs!

 ! parameters for general MD
 imin = 0, nstlim = 500000, irest = 1, ntx = 5, dt = 0.002,
 ntt = 3, temp0 = 298.0, gamma_ln = 2.0, ig = -1,
 ntb = 2,
 ntp = 1, barostat = 2, pres0 = 1.01325, taup = 2.0,
 ntwe = 100, ntwx = 10000, ntpr = 1000, ntwr = 50000, ntave = 50000,
 ioutfm = 1, iwrap = 1, ntxo = 2,

 ! parameters for alchemical free energy simulation
 ntc = 2, ntf = 1,
 noshakemask = ':1,2',

 icfe = 1, ifsc = 1, clambda = 0.2063, scalpha = 0.5, scbeta = 12.0,
 ifmbar = 1, mbar_lambda = 0.0 0.0479 0.1150 0.2063 0.3160 0.4373 0.5626 0.6839
 mbar_states = 12, bar_intervall = 1000,   ! ntpr = bar_intervall for alchemica

 timask1=':1', timask2=':2',
scmask1=':1@H34',
scmask2=':2@Cl18',
 crgmask = ':1@H34 | :2@Cl18',
 /
 &ewald
 /

Note: ig = -1. Setting random seed to   254214 based on wallclock time in
      microseconds.

--------------------------------------------------------------------------------
   1.  RESOURCE   USE:
--------------------------------------------------------------------------------

 getting box info from netcdf restart file
 NATOM  =    4115 NTYPES =      13 NBONH =    4066 MBONA  =      55
 NTHETH =      78 MTHETA =      84 NPHIH =     153 MPHIA  =     133
 NHPARM =       0 NPARM  =       0 NNB   =    5842 NRES   =    1345
 NBONA  =      55 NTHETA =      84 NPHIA =     133 NUMBND =      22
 NUMANG =      35 NPTRA  =      14 NATYP =      17 NPHB   =       1
 IFBOX  =       1 NMXRS  =      43 IFCAP =       0 NEXTRA =       0
 NCOPY  =       0

     BOX TYPE: RECTILINEAR

--------------------------------------------------------------------------------
   2.  CONTROL  DATA  FOR  THE  RUN
--------------------------------------------------------------------------------

L0

General flags:
     imin    =       0, nmropt  =       0

Nature and format of input:
     ntx     =       5, irest   =       1, ntrx    =       1

Nature and format of output:
     ntxo    =       2, ntpr    =    1000, ntrx    =       1, ntwr    =   50000
     iwrap   =       1, ntwx    =   10000, ntwv    =       0, ntwe    =     100
     ioutfm  =       1, ntwprt  =       0, idecomp =       0, rbornstat=      0

Potential function:
     ntf     =       1, ntb     =       2, igb     =       0, nsnb    =      25
     ipol    =       0, gbsa    =       0, iesp    =       0
     dielc   =   1.00000, cut     =   8.00000, intdiel =   1.00000

Frozen or restrained atoms:
     ibelly  =       0, ntr     =       0

Molecular dynamics:
     nstlim  =    500000, nscm    =      1000, nrespa  =         1
     t       =   0.00000, dt      =   0.00200, vlimit  =  -1.00000

Langevin dynamics temperature regulation:
     ig      =  254214
     temp0   = 298.00000, tempi   =   0.00000, gamma_ln=   2.00000

Pressure regulation:
     ntp     =       1
     pres0   =   1.01325, comp    =  44.60000, taup    =   2.00000
     Monte-Carlo Barostat:
     mcbarint  =     100

SHAKE:
     ntc     =       2, jfastw  =       0
     tol     =   0.00001

Free energy options:
     icfe    =       1, ifsc    =       1, klambda =       1
     clambda =  0.2063, scalpha =  0.5000, scbeta  = 12.0000
     sceeorder =       2
     dynlmb =  0.0000 logdvdl =       0

FEP MBAR options:
     ifmbar  =       1,  bar_intervall =     1000
     mbar_states =      12

Ewald parameters:
     verbose =       0, ew_type =       0, nbflag  =       1, use_pme =       1
     vdwmeth =       1, eedmeth =       1, netfrc  =       1
     Box X =   32.703   Box Y =   37.439   Box Z =   33.758
     Alpha =   90.000   Beta  =   90.000   Gamma =   90.000
     NFFT1 =   36       NFFT2 =   40       NFFT3 =   36
     Cutoff=    8.000   Tol   =0.100E-04
     Ewald Coefficient =  0.34864
     Interpolation order =    4
     TI Mask 1 :1; matches     43 atoms
     TI Mask 2 :2; matches     43 atoms
     TI region 1:    4072 atoms
     TI region 2:    4072 atoms
     SC Mask 1 :1@H34; matches      1 atoms
     SC Mask 2 :2@Cl18; matches      1 atoms
Removing charge of       0.1510 from atom      43
Removing charge of      -0.0609 from atom      86
Total charge of   0.09010100 removed from       2 atoms

    MBAR - lambda values considered:
      12 total:  0.0000 0.0479 0.1150 0.2063 0.3160 0.4373 0.5626 0.6839 0.7936 0.8849 0.9520 1.0000
    Extra energies will be computed    500 times.
 Noshake mask :1,2; matches      86 atoms.

--------------------------------------------------------------------------------
   3.  ATOMIC COORDINATES AND VELOCITIES
--------------------------------------------------------------------------------

L0
 begin time read from input coords =    20.000 ps

     Molecule     1 is partially softcore
     Molecule     2 is partially softcore
 Number of triangulated 3-point waters found:     1343
   Removing shake constraints from C22   L0    1 -- H41   L0    1
   Removing shake constraints from C22   L0    1 -- H42   L0    1
   Removing shake constraints from C21   L0    1 -- H39   L0    1
   Removing shake constraints from C21   L0    1 -- H40   L0    1
   Removing shake constraints from C20   L0    1 -- H38   L0    1
   Removing shake constraints from C19   L0    1 -- H37   L0    1
   Removing shake constraints from C18   L0    1 -- H36   L0    1
   Removing shake constraints from C15   L0    1 -- H35   L0    1
   Removing shake constraints from C14   L0    1 -- H34   L0    1
   Removing shake constraints from C13   L0    1 -- H33   L0    1
   Removing shake constraints from C10   L0    1 -- H32   L0    1
   Removing shake constraints from C9    L0    1 -- H31   L0    1
   Removing shake constraints from C8    L0    1 -- H30   L0    1
   Removing shake constraints from N5    L0    1 -- H29   L0    1
   Removing shake constraints from N4    L0    1 -- H43   L0    1
   Removing shake constraints from N4    L0    1 -- H28   L0    1
   Removing shake constraints from C1    L0    1 -- H25   L0    1
   Removing shake constraints from C1    L0    1 -- H26   L0    1
   Removing shake constraints from C1    L0    1 -- H27   L0    1
   Removing shake constraints from C23   L1    2 -- H41   L1    2
   Removing shake constraints from C23   L1    2 -- H42   L1    2
   Removing shake constraints from C22   L1    2 -- H39   L1    2
   Removing shake constraints from C22   L1    2 -- H40   L1    2
   Removing shake constraints from C21   L1    2 -- H38   L1    2
   Removing shake constraints from C20   L1    2 -- H37   L1    2
   Removing shake constraints from C13   L1    2 -- H34   L1    2
   Removing shake constraints from C16   L1    2 -- H35   L1    2
   Removing shake constraints from C19   L1    2 -- H36   L1    2
   Removing shake constraints from C10   L1    2 -- H33   L1    2
   Removing shake constraints from C9    L1    2 -- H32   L1    2
   Removing shake constraints from C8    L1    2 -- H31   L1    2
   Removing shake constraints from N5    L1    2 -- H30   L1    2
   Removing shake constraints from N4    L1    2 -- H43   L1    2
   Removing shake constraints from N4    L1    2 -- H29   L1    2
   Removing shake constraints from C1    L1    2 -- H26   L1    2
   Removing shake constraints from C1    L1    2 -- H27   L1    2
   Removing shake constraints from C1    L1    2 -- H28   L1    2
 WARNING: SHAKEn bond for atoms       14       43 is partially softcore.
 Coordinates for common atoms will be synchronized from V0.
 Consider using noshake mask or disabling SHAKE.

 Number of shake restraints removed in TI region  1 :       19
 Number of shake restraints removed in TI region  2 :       18

     Sum of charges for TI region  1 =   0.84897300
     Assuming uniform neutralizing plasma

     Sum of charges for TI region  2 =   1.06096699
     Assuming uniform neutralizing plasma

--------------------------------------------------------------------------------
   4.  RESULTS
 NSTEP =     1000   TIME(PS) =      22.000  TEMP(K) =   279.70  PRESS =     0.0
 Etot   =    -11001.6461  EKtot   =      2270.2090  EPtot      =    -13271.8551
 BOND   =        24.5823  ANGLE   =        30.6887  DIHED      =        15.5411
 1-4 NB =         6.3866  1-4 EEL =       -69.6284  VDWAALS    =      2116.8000
 EELEC  =    -15396.2252  EHBOND  =         0.0000  RESTRAINT  =         0.0000
 EKCMT  =         0.0000  VIRIAL  =         0.0000  VOLUME     =     41604.2794
                                                    Density    =         0.9793
 DV/DL  =        -0.3225
 ------------------------------------------------------------------------------

      A V E R A G E S   O V E R   50000 S T E P S

 NSTEP =    50000   TIME(PS) =     120.000  TEMP(K) =   297.18  PRESS =     0.0
 Etot   =    -10469.2620  EKtot   =      2412.0785  EPtot      =    -12881.3406
 BOND   =        18.1536  ANGLE   =        32.6453  DIHED      =        18.7415
 1-4 NB =         8.1784  1-4 EEL =       -66.2396  VDWAALS    =      1915.3405
 EELEC  =    -14808.1603  EHBOND  =         0.0000  RESTRAINT  =         0.0000
 EKCMT  =         0.0000  VIRIAL  =         0.0000  VOLUME     =     41198.5714
                                                    Density    =         0.9890
 DV/DL  =         3.7147
 ------------------------------------------------------------------------------

      R M S  F L U C T U A T I O N S

 NSTEP =    50000   TIME(PS) =     120.000  TEMP(K) =    10.70  PRESS =     0.0
 Etot   =       281.0406  EKtot   =        86.8245  EPtot      =       203.6980
 BOND   =         3.7618  ANGLE   =         3.3286  DIHED      =         2.6443
 1-4 NB =         0.9568  1-4 EEL =         2.1135  VDWAALS    =       103.7796
 EELEC  =       295.7066  EHBOND  =         0.0000  RESTRAINT  =         0.0000
 EKCMT  =         0.0000  VIRIAL  =         0.0000  VOLUME     =       259.9089
                                                    Density    =         0.0062
 DV/DL  =         2.3137
 ------------------------------------------------------------------------------

      A V E R A G E S   O V E R   50000 S T E P S

 NSTEP =    50000   TIME(PS) =     120.000  TEMP(K) =   297.17  PRESS =     0.0
 Etot   =    -10469.2885  EKtot   =      2412.0521  EPtot      =    -12881.3406
 BOND   =        18.1536  ANGLE   =        32.6453  DIHED      =        18.7415
 1-4 NB =         8.1784  1-4 EEL =       -66.2396  VDWAALS    =      1915.3405
 EELEC  =    -14808.1603  EHBOND  =         0.0000  RESTRAINT  =         0.0000
 EKCMT  =         0.0000  VIRIAL  =         0.0000  VOLUME     =     41198.5714
                                                    Density    =         0.9904
 DV/DL  =         3.7147
 ------------------------------------------------------------------------------

      R M S  F L U C T U A T I O N S

 NSTEP =    50000   TIME(PS) =     120.000  TEMP(K) =    10.69  PRESS =     0.0
 Etot   =       281.0296  EKtot   =        86.8002  EPtot      =       203.6980
 BOND   =         3.7618  ANGLE   =         3.3286  DIHED      =         2.6443
 1-4 NB =         0.9568  1-4 EEL =         2.1135  VDWAALS    =       103.7796
 EELEC  =       295.7066  EHBOND  =         0.0000  RESTRAINT  =         0.0000
 EKCMT  =         0.0000  VIRIAL  =         0.0000  VOLUME     =       259.9089
                                                    Density    =         0.0062
 DV/DL  =         2.3137
 ------------------------------------------------------------------------------

      DV/DL, AVERAGES OVER   50000 STEPS

 NSTEP =    50000   TIME(PS) =     120.000  TEMP(K) =    10.69  PRESS =     0.0
 Etot   =         0.0000  EKtot   =         0.0000  EPtot      =         3.6766
 BOND   =         0.0000  ANGLE   =         0.0000  DIHED      =         0.0000
 1-4 NB =         0.0000  1-4 EEL =         0.0000  VDWAALS    =        -0.2547
 EELEC  =        -0.2356  EHBOND  =         0.0000  RESTRAINT  =         0.0000
 EKCMT  =         0.0000  VIRIAL  =         0.0000  VOLUME     =         0.0000
                                                    Density    =         0.0000
 DV/DL  =         3.6766
 ------------------------------------------------------------------------------

      A V E R A G E S   O V E R   50000 S T E P S

 NSTEP =   100000   TIME(PS) =     220.000  TEMP(K) =   298.43  PRESS =     0.0
 Etot   =    -10425.3044  EKtot   =      2422.2958  EPtot      =    -12847.6002
 BOND   =        17.6749  ANGLE   =        31.8711  DIHED      =        18.4868
 1-4 NB =         7.8405  1-4 EEL =       -68.3617  VDWAALS    =      1903.1971
 EELEC  =    -14758.3089  EHBOND  =         0.0000  RESTRAINT  =         0.0000
 EKCMT  =         0.0000  VIRIAL  =         0.0000  VOLUME     =     41250.4296
                                                    Density    =         0.9878
 DV/DL  =         3.6568
 ------------------------------------------------------------------------------

      R M S  F L U C T U A T I O N S

 NSTEP =   100000   TIME(PS) =     220.000  TEMP(K) =     4.81  PRESS =     0.0
 Etot   =        67.5529  EKtot   =        39.0078  EPtot      =        54.5279
 BOND   =         3.6930  ANGLE   =         3.1341  DIHED      =         2.6093
 1-4 NB =         0.8498  1-4 EEL =         2.4454  VDWAALS    =        58.4366
 EELEC  =        90.7985  EHBOND  =         0.0000  RESTRAINT  =         0.0000
 EKCMT  =         0.0000  VIRIAL  =         0.0000  VOLUME     =       286.0937
                                                    Density    =         0.0069
 DV/DL  =         2.2971
 ------------------------------------------------------------------------------

      A V E R A G E S   O V E R   50000 S T E P S

 NSTEP =   100000   TIME(PS) =     220.000  TEMP(K) =   298.44  PRESS =     0.0
 Etot   =    -10425.2797  EKtot   =      2422.3206  EPtot      =    -12847.6002
 BOND   =        17.6749  ANGLE   =        31.8711  DIHED      =        18.4868
 1-4 NB =         7.8405  1-4 EEL =       -68.3617  VDWAALS    =      1903.1971
 EELEC  =    -14758.3089  EHBOND  =         0.0000  RESTRAINT  =         0.0000
 EKCMT  =         0.0000  VIRIAL  =         0.0000  VOLUME     =     41250.4296
                                                    Density    =         0.9892
 DV/DL  =         3.6568
 ------------------------------------------------------------------------------

      R M S  F L U C T U A T I O N S

 NSTEP =   100000   TIME(PS) =     220.000  TEMP(K) =     4.81  PRESS =     0.0
 Etot   =        67.5709  EKtot   =        39.0163  EPtot      =        54.5279
 BOND   =         3.6930  ANGLE   =         3.1341  DIHED      =         2.6093
 1-4 NB =         0.8498  1-4 EEL =         2.4454  VDWAALS    =        58.4366
 EELEC  =        90.7985  EHBOND  =         0.0000  RESTRAINT  =         0.0000
 EKCMT  =         0.0000  VIRIAL  =         0.0000  VOLUME     =       286.0937
                                                    Density    =         0.0069
 DV/DL  =         2.2971
 ------------------------------------------------------------------------------

      DV/DL, AVERAGES OVER   50000 STEPS

 NSTEP =   100000   TIME(PS) =     220.000  TEMP(K) =     4.81  PRESS =     0.0
 Etot   =         0.0000  EKtot   =         0.0000  EPtot      =         3.6212
 BOND   =         0.0000  ANGLE   =         0.0000  DIHED      =         0.0000
 1-4 NB =         0.0000  1-4 EEL =         0.0000  VDWAALS    =        -0.2544
 EELEC  =        -0.2356  EHBOND  =         0.0000  RESTRAINT  =         0.0000
 EKCMT  =         0.0000  VIRIAL  =         0.0000  VOLUME     =         0.0000
                                                    Density    =         0.0000
 DV/DL  =         3.6212
 ------------------------------------------------------------------------------

      A V E R A G E S   O V E R   50000 S T E P S

 NSTEP =   500000   TIME(PS) =    1020.000  TEMP(K) =   298.70  PRESS =     0.0
 Etot   =    -10415.4631  EKtot   =      2424.4458  EPtot      =    -12839.9089
 BOND   =        18.3101  ANGLE   =        32.1837  DIHED      =        18.2427
 1-4 NB =         7.8909  1-4 EEL =       -68.1299  VDWAALS    =      1899.7435
 EELEC  =    -14748.1500  EHBOND  =         0.0000  RESTRAINT  =         0.0000
 EKCMT  =         0.0000  VIRIAL  =         0.0000  VOLUME     =     41324.9423
                                                    Density    =         0.9860
 DV/DL  =         3.7657
 ------------------------------------------------------------------------------

      R M S  F L U C T U A T I O N S

 NSTEP =   500000   TIME(PS) =    1020.000  TEMP(K) =     4.47  PRESS =     0.0
 Etot   =        65.4276  EKtot   =        36.2585  EPtot      =        56.3704
 BOND   =         3.7647  ANGLE   =         3.2039  DIHED      =         2.7275
 1-4 NB =         0.8822  1-4 EEL =         2.6294  VDWAALS    =        54.1836
 EELEC  =        89.4769  EHBOND  =         0.0000  RESTRAINT  =         0.0000
 EKCMT  =         0.0000  VIRIAL  =         0.0000  VOLUME     =       386.4731
                                                    Density    =         0.0092
 DV/DL  =         2.2532
 ------------------------------------------------------------------------------

      A V E R A G E S   O V E R   50000 S T E P S

 NSTEP =   500000   TIME(PS) =    1020.000  TEMP(K) =   298.71  PRESS =     0.0
 Etot   =    -10415.4075  EKtot   =      2424.5014  EPtot      =    -12839.9089
 BOND   =        18.3101  ANGLE   =        32.1837  DIHED      =        18.2427
 1-4 NB =         7.8909  1-4 EEL =       -68.1299  VDWAALS    =      1899.7435
 EELEC  =    -14748.1500  EHBOND  =         0.0000  RESTRAINT  =         0.0000
 EKCMT  =         0.0000  VIRIAL  =         0.0000  VOLUME     =     41324.9423
                                                    Density    =         0.9874
 DV/DL  =         3.7657
 ------------------------------------------------------------------------------

      R M S  F L U C T U A T I O N S

 NSTEP =   500000   TIME(PS) =    1020.000  TEMP(K) =     4.47  PRESS =     0.0
 Etot   =        65.4387  EKtot   =        36.2605  EPtot      =        56.3704
 BOND   =         3.7647  ANGLE   =         3.2039  DIHED      =         2.7275
 1-4 NB =         0.8822  1-4 EEL =         2.6294  VDWAALS    =        54.1836
 EELEC  =        89.4769  EHBOND  =         0.0000  RESTRAINT  =         0.0000
 EKCMT  =         0.0000  VIRIAL  =         0.0000  VOLUME     =       386.4731
                                                    Density    =         0.0092
 DV/DL  =         2.2532
 ------------------------------------------------------------------------------

      DV/DL, AVERAGES OVER   50000 STEPS

 NSTEP =   500000   TIME(PS) =    1020.000  TEMP(K) =     4.47  PRESS =     0.0
 Etot   =         0.0000  EKtot   =         0.0000  EPtot      =         3.7285
 BOND   =         0.0000  ANGLE   =         0.0000  DIHED      =         0.0000
 1-4 NB =         0.0000  1-4 EEL =         0.0000  VDWAALS    =        -0.2540
 EELEC  =        -0.2355  EHBOND  =         0.0000  RESTRAINT  =         0.0000
 EKCMT  =         0.0000  VIRIAL  =         0.0000  VOLUME     =         0.0000
                                                    Density    =         0.0000
 DV/DL  =         3.7285
 ------------------------------------------------------------------------------

      A V E R A G E S   O V E R  500000 S T E P S

 NSTEP =   500000   TIME(PS) =    1020.000  TEMP(K) =   298.47  PRESS =     0.0
 Etot   =    -10423.1926  EKtot   =      2422.5625  EPtot      =    -12845.7551
 BOND   =        18.0692  ANGLE   =        32.1651  DIHED      =        18.5602
 1-4 NB =         7.8790  1-4 EEL =       -68.9463  VDWAALS    =      1901.4021
 EELEC  =    -14754.8845  EHBOND  =         0.0000  RESTRAINT  =         0.0000
 EKCMT  =         0.0000  VIRIAL  =         0.0000  VOLUME     =     41265.9284
                                                    Density    =         0.9874
 DV/DL  =         3.7539
 ------------------------------------------------------------------------------

      R M S  F L U C T U A T I O N S

 NSTEP =   500000   TIME(PS) =    1020.000  TEMP(K) =     5.56  PRESS =     0.0
 Etot   =       109.3721  EKtot   =        45.0892  EPtot      =        83.4879
 BOND   =         3.7651  ANGLE   =         3.2241  DIHED      =         2.7172
 1-4 NB =         0.8768  1-4 EEL =         2.7669  VDWAALS    =        63.3534
 EELEC  =       127.5214  EHBOND  =         0.0000  RESTRAINT  =         0.0000
 EKCMT  =         0.0000  VIRIAL  =         0.0000  VOLUME     =       313.3067
                                                    Density    =         0.0075
 DV/DL  =         2.3228
 ------------------------------------------------------------------------------

      A V E R A G E S   O V E R  500000 S T E P S

 NSTEP =   500000   TIME(PS) =    1020.000  TEMP(K) =   298.47  PRESS =     0.0
 Etot   =    -10423.1927  EKtot   =      2422.5624  EPtot      =    -12845.7551
 BOND   =        18.0692  ANGLE   =        32.1651  DIHED      =        18.5602
 1-4 NB =         7.8790  1-4 EEL =       -68.9463  VDWAALS    =      1901.4021
 EELEC  =    -14754.8845  EHBOND  =         0.0000  RESTRAINT  =         0.0000
 EKCMT  =         0.0000  VIRIAL  =         0.0000  VOLUME     =     41265.9284
                                                    Density    =         0.9888
 DV/DL  =         3.7539
 ------------------------------------------------------------------------------

      R M S  F L U C T U A T I O N S

 NSTEP =   500000   TIME(PS) =    1020.000  TEMP(K) =     5.55  PRESS =     0.0
 Etot   =       109.3803  EKtot   =        45.0858  EPtot      =        83.4879
 BOND   =         3.7651  ANGLE   =         3.2241  DIHED      =         2.7172
 1-4 NB =         0.8768  1-4 EEL =         2.7669  VDWAALS    =        63.3534
 EELEC  =       127.5214  EHBOND  =         0.0000  RESTRAINT  =         0.0000
 EKCMT  =         0.0000  VIRIAL  =         0.0000  VOLUME     =       313.3067
                                                    Density    =         0.0075
 DV/DL  =         2.3228
 ------------------------------------------------------------------------------

      DV/DL, AVERAGES OVER  500000 STEPS

 NSTEP =   500000   TIME(PS) =    1020.000  TEMP(K) =     5.55  PRESS =     0.0
 Etot   =         0.0000  EKtot   =         0.0000  EPtot      =         3.7166
 BOND   =         0.0000  ANGLE   =         0.0000  DIHED      =         0.0000
 1-4 NB =         0.0000  1-4 EEL =         0.0000  VDWAALS    =        -0.2543
 EELEC  =        -0.2355  EHBOND  =         0.0000  RESTRAINT  =         0.0000
 EKCMT  =         0.0000  VIRIAL  =         0.0000  VOLUME     =         0.0000
                                                    Density    =         0.0000
 DV/DL  =         3.7166
 ------------------------------------------------------------------------------
