-------------------------------------------------------
          Amber 16 PMEMD                              2016
          -------------------------------------------------------

  [-O]verwriting output

File Assignments:

 Here is the input file:

TI/FEP, NpT, charge transformation
 &cntrl
 ! please adjust namelist parameters to your needs!

 ! parameters for general MD
 imin = 0, nstlim = 500000, irest = 1, ntx = 5, dt = 0.002,
 ntt = 3, temp0 = 298.0, gamma_ln = 2.0, ig = -1,
 ntb = 2,
 ntp = 1, barostat = 2, pres0 = 1.01325, taup = 2.0,
 ntwe = 1000, ntwx = 10000, ntpr = 1000, ntwr = 50000, ntave = 50000,
 ioutfm = 1, iwrap = 1, ntxo = 2,

 ! parameters for alchemical free energy simulation
 ntc = 2, ntf = 1,
 noshakemask = ':1,2',

 icfe = 1, ifsc = 0, clambda = 0.75, scalpha = 0.5, scbeta = 12.0,
 ifmbar = 0, bar_intervall = 500, bar_l_min = 0.0, bar_l_max = 1.0,
 bar_l_incr = 0.1,   ! ntpr = bar_intervall for alchemical analysis tool

 timask1=':1', timask2=':2',
scmask1='',
scmask2='',
 crgmask = '',
 /
 &ewald
 /

Note: ig = -1. Setting random seed to   151794 based on wallclock time in
      microseconds.

--------------------------------------------------------------------------------
   1.  RESOURCE   USE:
--------------------------------------------------------------------------------

 getting box info from netcdf restart file
 NATOM  =    5986 NTYPES =      15 NBONH =    5926 MBONA  =      62
 NTHETH =      94 MTHETA =      84 NPHIH =     149 MPHIA  =     130
 NHPARM =       0 NPARM  =       0 NNB   =    8354 NRES   =    1962
 NBONA  =      62 NTHETA =      84 NPHIA =     130 NUMBND =      20
 NUMANG =      30 NPTRA  =      21 NATYP =      16 NPHB   =       1
 IFBOX  =       1 NMXRS  =      53 IFCAP =       0 NEXTRA =       0
 NCOPY  =       0

     BOX TYPE: RECTILINEAR

--------------------------------------------------------------------------------
   2.  CONTROL  DATA  FOR  THE  RUN
--------------------------------------------------------------------------------

INT

General flags:
     imin    =       0, nmropt  =       0

Nature and format of input:
     ntx     =       5, irest   =       1, ntrx    =       1

Nature and format of output:
     ntxo    =       2, ntpr    =    1000, ntrx    =       1, ntwr    =   50000
     iwrap   =       1, ntwx    =   10000, ntwv    =       0, ntwe    =    1000
     ioutfm  =       1, ntwprt  =       0, idecomp =       0, rbornstat=      0

Potential function:
     ntf     =       1, ntb     =       2, igb     =       0, nsnb    =      25
     ipol    =       0, gbsa    =       0, iesp    =       0
     dielc   =   1.00000, cut     =   8.00000, intdiel =   1.00000

Frozen or restrained atoms:
     ibelly  =       0, ntr     =       0

Molecular dynamics:
     nstlim  =    500000, nscm    =      1000, nrespa  =         1
     t       =   0.00000, dt      =   0.00200, vlimit  =  -1.00000

Langevin dynamics temperature regulation:
     ig      =  151794
     temp0   = 298.00000, tempi   =   0.00000, gamma_ln=   2.00000

Pressure regulation:
     ntp     =       1
     pres0   =   1.01325, comp    =  44.60000, taup    =   2.00000
     Monte-Carlo Barostat:
     mcbarint  =     100

SHAKE:
     ntc     =       2, jfastw  =       0
     tol     =   0.00001

Free energy options:
     icfe    =       1, ifsc    =       0, klambda =       1
     clambda =  0.7500, scalpha =  0.5000, scbeta  = 12.0000
     sceeorder =       2
     dynlmb =  0.0000 logdvdl =       0

Ewald parameters:
     verbose =       0, ew_type =       0, nbflag  =       1, use_pme =       1
     vdwmeth =       1, eedmeth =       1, netfrc  =       1
     Box X =   40.877   Box Y =   43.011   Box Z =   34.124
     Alpha =   90.000   Beta  =   90.000   Gamma =   90.000
     NFFT1 =   48       NFFT2 =   48       NFFT3 =   36
     Cutoff=    8.000   Tol   =0.100E-04
     Ewald Coefficient =  0.34864
     Interpolation order =    4
     TI Mask 1 :1; matches     53 atoms
     TI Mask 2 :2; matches     53 atoms
     TI region 1:    5933 atoms
     TI region 2:    5933 atoms
     Checking for mismatched coordinates.
 Noshake mask :1,2; matches     106 atoms.

--------------------------------------------------------------------------------
   3.  ATOMIC COORDINATES AND VELOCITIES
--------------------------------------------------------------------------------

INT
 begin time read from input coords =    20.000 ps

 Number of triangulated 3-point waters found:     1960
   Removing shake constraints from C30   INT   1 -- H52   INT   1
   Removing shake constraints from C30   INT   1 -- H53   INT   1
   Removing shake constraints from C30   INT   1 -- H51   INT   1
   Removing shake constraints from C26   INT   1 -- H47   INT   1
   Removing shake constraints from C26   INT   1 -- H48   INT   1
   Removing shake constraints from C26   INT   1 -- H49   INT   1
   Removing shake constraints from C24   INT   1 -- H46   INT   1
   Removing shake constraints from N27   INT   1 -- H50   INT   1
   Removing shake constraints from C21   INT   1 -- H45   INT   1
   Removing shake constraints from C20   INT   1 -- H42   INT   1
   Removing shake constraints from C20   INT   1 -- H43   INT   1
   Removing shake constraints from C20   INT   1 -- H44   INT   1
   Removing shake constraints from C16   INT   1 -- H40   INT   1
   Removing shake constraints from C16   INT   1 -- H41   INT   1
   Removing shake constraints from N13   INT   1 -- H39   INT   1
   Removing shake constraints from N9    INT   1 -- H38   INT   1
   Removing shake constraints from N9    INT   1 -- H37   INT   1
   Removing shake constraints from C7    INT   1 -- H36   INT   1
   Removing shake constraints from C2    INT   1 -- H34   INT   1
   Removing shake constraints from C2    INT   1 -- H35   INT   1
   Removing shake constraints from C1    INT   1 -- H31   INT   1
   Removing shake constraints from C1    INT   1 -- H32   INT   1
   Removing shake constraints from C1    INT   1 -- H33   INT   1
   Removing shake constraints from C30   L1    2 -- H52   L1    2
   Removing shake constraints from C30   L1    2 -- H53   L1    2
   Removing shake constraints from C30   L1    2 -- H51   L1    2
   Removing shake constraints from C26   L1    2 -- H47   L1    2
   Removing shake constraints from C26   L1    2 -- H48   L1    2
   Removing shake constraints from C26   L1    2 -- H49   L1    2
   Removing shake constraints from C24   L1    2 -- H46   L1    2
   Removing shake constraints from N27   L1    2 -- H50   L1    2
   Removing shake constraints from C21   L1    2 -- H45   L1    2
   Removing shake constraints from C20   L1    2 -- H42   L1    2
   Removing shake constraints from C20   L1    2 -- H43   L1    2
   Removing shake constraints from C20   L1    2 -- H44   L1    2
   Removing shake constraints from C16   L1    2 -- H40   L1    2
   Removing shake constraints from C16   L1    2 -- H41   L1    2
   Removing shake constraints from N13   L1    2 -- H39   L1    2
   Removing shake constraints from N9    L1    2 -- H38   L1    2
   Removing shake constraints from N9    L1    2 -- H37   L1    2
   Removing shake constraints from C7    L1    2 -- H36   L1    2
   Removing shake constraints from C2    L1    2 -- H34   L1    2
   Removing shake constraints from C2    L1    2 -- H35   L1    2
   Removing shake constraints from C1    L1    2 -- H31   L1    2
   Removing shake constraints from C1    L1    2 -- H32   L1    2
   Removing shake constraints from C1    L1    2 -- H33   L1    2
 Number of shake restraints removed:       46

     Sum of charges for TI region  1 =   0.00001100
     Forcing neutrality...

     Sum of charges for TI region  2 =  -0.00001000
     Forcing neutrality...

--------------------------------------------------------------------------------
   4.  RESULTS
 NSTEP =     1000   TIME(PS) =      22.000  TEMP(K) =   282.96  PRESS =     0.0
 Etot   =    -16289.5235  EKtot   =      3357.5037  EPtot      =    -19647.0272
 BOND   =        18.7967  ANGLE   =        21.5398  DIHED      =        21.0265
 1-4 NB =        13.1460  1-4 EEL =      -671.8584  VDWAALS    =      3003.1060
 EELEC  =    -22052.7837  EHBOND  =         0.0000  RESTRAINT  =         0.0000
 EKCMT  =         0.0000  VIRIAL  =         0.0000  VOLUME     =     60185.6579
                                                    Density    =         0.9857
 DV/DL  =       -69.3979
 ------------------------------------------------------------------------------

      A V E R A G E S   O V E R   50000 S T E P S

 NSTEP =    50000   TIME(PS) =     120.000  TEMP(K) =   296.29  PRESS =     0.0
 Etot   =    -15576.9074  EKtot   =      3515.6702  EPtot      =    -19092.5776
 BOND   =        21.2428  ANGLE   =        24.7446  DIHED      =        22.4571
 1-4 NB =        15.6033  1-4 EEL =      -679.3581  VDWAALS    =      2793.3314
 EELEC  =    -21290.5987  EHBOND  =         0.0000  RESTRAINT  =         0.0000
 EKCMT  =         0.0000  VIRIAL  =         0.0000  VOLUME     =     60028.5819
                                                    Density    =         0.9883
 DV/DL  =       -66.0746
 ------------------------------------------------------------------------------

      R M S  F L U C T U A T I O N S

 NSTEP =    50000   TIME(PS) =     120.000  TEMP(K) =    10.36  PRESS =     0.0
 Etot   =       407.8474  EKtot   =       122.9740  EPtot      =       294.8708
 BOND   =         4.1134  ANGLE   =         4.1683  DIHED      =         3.6729
 1-4 NB =         1.4295  1-4 EEL =         4.4763  VDWAALS    =       145.3916
 EELEC  =       427.7748  EHBOND  =         0.0000  RESTRAINT  =         0.0000
 EKCMT  =         0.0000  VIRIAL  =         0.0000  VOLUME     =       407.8717
                                                    Density    =         0.0067
 DV/DL  =         4.0276
 ------------------------------------------------------------------------------

      A V E R A G E S   O V E R   50000 S T E P S

 NSTEP =    50000   TIME(PS) =     120.000  TEMP(K) =   296.29  PRESS =     0.0
 Etot   =    -15576.9074  EKtot   =      3515.6702  EPtot      =    -19092.5776
 BOND   =        21.2428  ANGLE   =        24.7446  DIHED      =        22.4571
 1-4 NB =        15.6033  1-4 EEL =      -679.3581  VDWAALS    =      2793.3314
 EELEC  =    -21290.5987  EHBOND  =         0.0000  RESTRAINT  =         0.0000
 EKCMT  =         0.0000  VIRIAL  =         0.0000  VOLUME     =     60028.5819
                                                    Density    =         0.9883
 DV/DL  =       -66.0746
 ------------------------------------------------------------------------------

      R M S  F L U C T U A T I O N S

 NSTEP =    50000   TIME(PS) =     120.000  TEMP(K) =    10.36  PRESS =     0.0
 Etot   =       407.8474  EKtot   =       122.9740  EPtot      =       294.8708
 BOND   =         4.1134  ANGLE   =         4.1683  DIHED      =         3.6729
 1-4 NB =         1.4295  1-4 EEL =         4.4763  VDWAALS    =       145.3916
 EELEC  =       427.7748  EHBOND  =         0.0000  RESTRAINT  =         0.0000
 EKCMT  =         0.0000  VIRIAL  =         0.0000  VOLUME     =       407.8717
                                                    Density    =         0.0067
 DV/DL  =         4.0276
 ------------------------------------------------------------------------------

      DV/DL, AVERAGES OVER   50000 STEPS

 NSTEP =    50000   TIME(PS) =     120.000  TEMP(K) =    10.36  PRESS =     0.0
 Etot   =         0.0000  EKtot   =         0.0000  EPtot      =       -65.4143
 BOND   =         0.0000  ANGLE   =         0.0000  DIHED      =         0.0000
 1-4 NB =         0.0000  1-4 EEL =         0.0000  VDWAALS    =         0.0000
 EELEC  =       -79.8701  EHBOND  =         0.0000  RESTRAINT  =         0.0000
 EKCMT  =         0.0000  VIRIAL  =         0.0000  VOLUME     =         0.0000
                                                    Density    =         0.0000
 DV/DL  =       -65.4143
 ------------------------------------------------------------------------------

      A V E R A G E S   O V E R   50000 S T E P S

 NSTEP =   100000   TIME(PS) =     220.000  TEMP(K) =   297.73  PRESS =     0.0
 Etot   =    -15521.1874  EKtot   =      3532.7067  EPtot      =    -19053.8940
 BOND   =        21.2432  ANGLE   =        24.2758  DIHED      =        22.3131
 1-4 NB =        15.5535  1-4 EEL =      -678.3638  VDWAALS    =      2779.3866
 EELEC  =    -21238.3024  EHBOND  =         0.0000  RESTRAINT  =         0.0000
 EKCMT  =         0.0000  VIRIAL  =         0.0000  VOLUME     =     60126.6406
                                                    Density    =         0.9867
 DV/DL  =       -65.6253
 ------------------------------------------------------------------------------

      R M S  F L U C T U A T I O N S

 NSTEP =   100000   TIME(PS) =     220.000  TEMP(K) =     3.75  PRESS =     0.0
 Etot   =        78.4271  EKtot   =        44.4722  EPtot      =        66.0145
 BOND   =         4.1937  ANGLE   =         4.0627  DIHED      =         3.7003
 1-4 NB =         1.4719  1-4 EEL =         4.3819  VDWAALS    =        65.3344
 EELEC  =       103.9203  EHBOND  =         0.0000  RESTRAINT  =         0.0000
 EKCMT  =         0.0000  VIRIAL  =         0.0000  VOLUME     =       297.0180
                                                    Density    =         0.0049
 DV/DL  =         4.2501
 ------------------------------------------------------------------------------

      A V E R A G E S   O V E R   50000 S T E P S

 NSTEP =   100000   TIME(PS) =     220.000  TEMP(K) =   297.73  PRESS =     0.0
 Etot   =    -15521.1874  EKtot   =      3532.7067  EPtot      =    -19053.8940
 BOND   =        21.2432  ANGLE   =        24.2758  DIHED      =        22.3131
 1-4 NB =        15.5535  1-4 EEL =      -678.3638  VDWAALS    =      2779.3866
 EELEC  =    -21238.3024  EHBOND  =         0.0000  RESTRAINT  =         0.0000
 EKCMT  =         0.0000  VIRIAL  =         0.0000  VOLUME     =     60126.6406
                                                    Density    =         0.9867
 DV/DL  =       -65.6253
 ------------------------------------------------------------------------------

      R M S  F L U C T U A T I O N S

 NSTEP =   100000   TIME(PS) =     220.000  TEMP(K) =     3.75  PRESS =     0.0
 Etot   =        78.4271  EKtot   =        44.4722  EPtot      =        66.0145
 BOND   =         4.1937  ANGLE   =         4.0627  DIHED      =         3.7003
 1-4 NB =         1.4719  1-4 EEL =         4.3819  VDWAALS    =        65.3344
 EELEC  =       103.9203  EHBOND  =         0.0000  RESTRAINT  =         0.0000
 EKCMT  =         0.0000  VIRIAL  =         0.0000  VOLUME     =       297.0180
                                                    Density    =         0.0049
 DV/DL  =         4.2501
 ------------------------------------------------------------------------------

      DV/DL, AVERAGES OVER   50000 STEPS

 NSTEP =   100000   TIME(PS) =     220.000  TEMP(K) =     3.75  PRESS =     0.0
 Etot   =         0.0000  EKtot   =         0.0000  EPtot      =       -64.9669
 BOND   =         0.0000  ANGLE   =         0.0000  DIHED      =         0.0000
 1-4 NB =         0.0000  1-4 EEL =         0.0000  VDWAALS    =         0.0000
 EELEC  =       -79.8701  EHBOND  =         0.0000  RESTRAINT  =         0.0000
 EKCMT  =         0.0000  VIRIAL  =         0.0000  VOLUME     =         0.0000
                                                    Density    =         0.0000
 DV/DL  =       -64.9669
 ------------------------------------------------------------------------------

      A V E R A G E S   O V E R   50000 S T E P S

 NSTEP =   500000   TIME(PS) =    1020.000  TEMP(K) =   297.64  PRESS =     0.0
 Etot   =    -15531.9486  EKtot   =      3531.6587  EPtot      =    -19063.6073
 BOND   =        21.2483  ANGLE   =        24.0270  DIHED      =        23.1831
 1-4 NB =        15.6551  1-4 EEL =      -678.1498  VDWAALS    =      2780.7302
 EELEC  =    -21250.3012  EHBOND  =         0.0000  RESTRAINT  =         0.0000
 EKCMT  =         0.0000  VIRIAL  =         0.0000  VOLUME     =     59923.2520
                                                    Density    =         0.9900
 DV/DL  =       -65.5422
 ------------------------------------------------------------------------------

      R M S  F L U C T U A T I O N S

 NSTEP =   500000   TIME(PS) =    1020.000  TEMP(K) =     3.96  PRESS =     0.0
 Etot   =        81.4501  EKtot   =        47.0077  EPtot      =        65.5848
 BOND   =         4.1167  ANGLE   =         4.0422  DIHED      =         3.8395
 1-4 NB =         1.4938  1-4 EEL =         4.3844  VDWAALS    =        67.7605
 EELEC  =       107.1475  EHBOND  =         0.0000  RESTRAINT  =         0.0000
 EKCMT  =         0.0000  VIRIAL  =         0.0000  VOLUME     =       331.9582
                                                    Density    =         0.0055
 DV/DL  =         4.1589
 ------------------------------------------------------------------------------

      A V E R A G E S   O V E R   50000 S T E P S

 NSTEP =   500000   TIME(PS) =    1020.000  TEMP(K) =   297.64  PRESS =     0.0
 Etot   =    -15531.9486  EKtot   =      3531.6587  EPtot      =    -19063.6073
 BOND   =        21.2483  ANGLE   =        24.0270  DIHED      =        23.1831
 1-4 NB =        15.6551  1-4 EEL =      -678.1498  VDWAALS    =      2780.7302
 EELEC  =    -21250.3012  EHBOND  =         0.0000  RESTRAINT  =         0.0000
 EKCMT  =         0.0000  VIRIAL  =         0.0000  VOLUME     =     59923.2520
                                                    Density    =         0.9900
 DV/DL  =       -65.5422
 ------------------------------------------------------------------------------

      R M S  F L U C T U A T I O N S

 NSTEP =   500000   TIME(PS) =    1020.000  TEMP(K) =     3.96  PRESS =     0.0
 Etot   =        81.4501  EKtot   =        47.0077  EPtot      =        65.5848
 BOND   =         4.1167  ANGLE   =         4.0422  DIHED      =         3.8395
 1-4 NB =         1.4938  1-4 EEL =         4.3844  VDWAALS    =        67.7605
 EELEC  =       107.1475  EHBOND  =         0.0000  RESTRAINT  =         0.0000
 EKCMT  =         0.0000  VIRIAL  =         0.0000  VOLUME     =       331.9582
                                                    Density    =         0.0055
 DV/DL  =         4.1589
 ------------------------------------------------------------------------------

      DV/DL, AVERAGES OVER   50000 STEPS

 NSTEP =   500000   TIME(PS) =    1020.000  TEMP(K) =     3.96  PRESS =     0.0
 Etot   =         0.0000  EKtot   =         0.0000  EPtot      =       -64.8861
 BOND   =         0.0000  ANGLE   =         0.0000  DIHED      =         0.0000
 1-4 NB =         0.0000  1-4 EEL =         0.0000  VDWAALS    =         0.0000
 EELEC  =       -79.8701  EHBOND  =         0.0000  RESTRAINT  =         0.0000
 EKCMT  =         0.0000  VIRIAL  =         0.0000  VOLUME     =         0.0000
                                                    Density    =         0.0000
 DV/DL  =       -64.8861
 ------------------------------------------------------------------------------

      A V E R A G E S   O V E R  500000 S T E P S

 NSTEP =   500000   TIME(PS) =    1020.000  TEMP(K) =   297.45  PRESS =     0.0
 Etot   =    -15530.9873  EKtot   =      3529.4049  EPtot      =    -19060.3922
 BOND   =        21.4168  ANGLE   =        24.1389  DIHED      =        22.4872
 1-4 NB =        15.5949  1-4 EEL =      -678.6935  VDWAALS    =      2783.2518
 EELEC  =    -21248.5883  EHBOND  =         0.0000  RESTRAINT  =         0.0000
 EKCMT  =         0.0000  VIRIAL  =         0.0000  VOLUME     =     60047.0008
                                                    Density    =         0.9880
 DV/DL  =       -65.8643
 ------------------------------------------------------------------------------

      R M S  F L U C T U A T I O N S

 NSTEP =   500000   TIME(PS) =    1020.000  TEMP(K) =     4.91  PRESS =     0.0
 Etot   =       151.2364  EKtot   =        58.2214  EPtot      =       113.8470
 BOND   =         4.1578  ANGLE   =         3.9871  DIHED      =         3.8038
 1-4 NB =         1.4524  1-4 EEL =         4.4013  VDWAALS    =        79.8150
 EELEC  =       171.2084  EHBOND  =         0.0000  RESTRAINT  =         0.0000
 EKCMT  =         0.0000  VIRIAL  =         0.0000  VOLUME     =       372.0191
                                                    Density    =         0.0061
 DV/DL  =         4.2814
 ------------------------------------------------------------------------------

      A V E R A G E S   O V E R  500000 S T E P S

 NSTEP =   500000   TIME(PS) =    1020.000  TEMP(K) =   297.45  PRESS =     0.0
 Etot   =    -15530.9873  EKtot   =      3529.4049  EPtot      =    -19060.3922
 BOND   =        21.4168  ANGLE   =        24.1389  DIHED      =        22.4872
 1-4 NB =        15.5949  1-4 EEL =      -678.6935  VDWAALS    =      2783.2518
 EELEC  =    -21248.5883  EHBOND  =         0.0000  RESTRAINT  =         0.0000
 EKCMT  =         0.0000  VIRIAL  =         0.0000  VOLUME     =     60047.0008
                                                    Density    =         0.9880
 DV/DL  =       -65.8643
 ------------------------------------------------------------------------------

      R M S  F L U C T U A T I O N S

 NSTEP =   500000   TIME(PS) =    1020.000  TEMP(K) =     4.91  PRESS =     0.0
 Etot   =       151.2364  EKtot   =        58.2214  EPtot      =       113.8470
 BOND   =         4.1578  ANGLE   =         3.9871  DIHED      =         3.8038
 1-4 NB =         1.4524  1-4 EEL =         4.4013  VDWAALS    =        79.8150
 EELEC  =       171.2084  EHBOND  =         0.0000  RESTRAINT  =         0.0000
 EKCMT  =         0.0000  VIRIAL  =         0.0000  VOLUME     =       372.0191
                                                    Density    =         0.0061
 DV/DL  =         4.2814
 ------------------------------------------------------------------------------

      DV/DL, AVERAGES OVER  500000 STEPS

 NSTEP =   500000   TIME(PS) =    1020.000  TEMP(K) =     4.91  PRESS =     0.0
 Etot   =         0.0000  EKtot   =         0.0000  EPtot      =       -65.2053
 BOND   =         0.0000  ANGLE   =         0.0000  DIHED      =         0.0000
 1-4 NB =         0.0000  1-4 EEL =         0.0000  VDWAALS    =         0.0000
 EELEC  =       -79.8701  EHBOND  =         0.0000  RESTRAINT  =         0.0000
 EKCMT  =         0.0000  VIRIAL  =         0.0000  VOLUME     =         0.0000
                                                    Density    =         0.0000
 DV/DL  =       -65.2053
 ------------------------------------------------------------------------------
