-------------------------------------------------------
          Amber 16 PMEMD                              2016
          -------------------------------------------------------

  [-O]verwriting output

File Assignments:

 Here is the input file:

TI/FEP, NpT, vdW+bonded transformation
 &cntrl
 ! please adjust namelist parameters to your needs!

 ! parameters for general MD
 imin = 0, nstlim = 500000, irest = 1, ntx = 5, dt = 0.002,
 ntt = 3, temp0 = 298.0, gamma_ln = 2.0, ig = -1,
 ntb = 2,
 ntp = 1, barostat = 2, pres0 = 1.01325, taup = 2.0,
 ntwe = 100, ntwx = 10000, ntpr = 1000, ntwr = 50000, ntave = 50000,
 ioutfm = 1, iwrap = 1, ntxo = 2,

 ! parameters for alchemical free energy simulation
 ntc = 2, ntf = 1,
 noshakemask = ':1,2',

 icfe = 1, ifsc = 1, clambda = 0.7936, scalpha = 0.5, scbeta = 12.0,
 ifmbar = 1, mbar_lambda = 0.0 0.0479 0.1150 0.2063 0.3160 0.4373 0.5626 0.6839
 mbar_states = 12, bar_intervall = 1000,   ! ntpr = bar_intervall for alchemica

 timask1=':1', timask2=':2',
scmask1=':1@H34',
scmask2=':2@Cl18',
 crgmask = ':1@H34 | :2@Cl18',
 /
 &ewald
 /

Note: ig = -1. Setting random seed to   654822 based on wallclock time in
      microseconds.

--------------------------------------------------------------------------------
   1.  RESOURCE   USE:
--------------------------------------------------------------------------------

 getting box info from netcdf restart file
 NATOM  =    4115 NTYPES =      13 NBONH =    4066 MBONA  =      55
 NTHETH =      78 MTHETA =      84 NPHIH =     153 MPHIA  =     133
 NHPARM =       0 NPARM  =       0 NNB   =    5842 NRES   =    1345
 NBONA  =      55 NTHETA =      84 NPHIA =     133 NUMBND =      22
 NUMANG =      35 NPTRA  =      14 NATYP =      17 NPHB   =       1
 IFBOX  =       1 NMXRS  =      43 IFCAP =       0 NEXTRA =       0
 NCOPY  =       0

     BOX TYPE: RECTILINEAR

--------------------------------------------------------------------------------
   2.  CONTROL  DATA  FOR  THE  RUN
--------------------------------------------------------------------------------

L0

General flags:
     imin    =       0, nmropt  =       0

Nature and format of input:
     ntx     =       5, irest   =       1, ntrx    =       1

Nature and format of output:
     ntxo    =       2, ntpr    =    1000, ntrx    =       1, ntwr    =   50000
     iwrap   =       1, ntwx    =   10000, ntwv    =       0, ntwe    =     100
     ioutfm  =       1, ntwprt  =       0, idecomp =       0, rbornstat=      0

Potential function:
     ntf     =       1, ntb     =       2, igb     =       0, nsnb    =      25
     ipol    =       0, gbsa    =       0, iesp    =       0
     dielc   =   1.00000, cut     =   8.00000, intdiel =   1.00000

Frozen or restrained atoms:
     ibelly  =       0, ntr     =       0

Molecular dynamics:
     nstlim  =    500000, nscm    =      1000, nrespa  =         1
     t       =   0.00000, dt      =   0.00200, vlimit  =  -1.00000

Langevin dynamics temperature regulation:
     ig      =  654822
     temp0   = 298.00000, tempi   =   0.00000, gamma_ln=   2.00000

Pressure regulation:
     ntp     =       1
     pres0   =   1.01325, comp    =  44.60000, taup    =   2.00000
     Monte-Carlo Barostat:
     mcbarint  =     100

SHAKE:
     ntc     =       2, jfastw  =       0
     tol     =   0.00001

Free energy options:
     icfe    =       1, ifsc    =       1, klambda =       1
     clambda =  0.7936, scalpha =  0.5000, scbeta  = 12.0000
     sceeorder =       2
     dynlmb =  0.0000 logdvdl =       0

FEP MBAR options:
     ifmbar  =       1,  bar_intervall =     1000
     mbar_states =      12

Ewald parameters:
     verbose =       0, ew_type =       0, nbflag  =       1, use_pme =       1
     vdwmeth =       1, eedmeth =       1, netfrc  =       1
     Box X =   32.703   Box Y =   37.439   Box Z =   33.758
     Alpha =   90.000   Beta  =   90.000   Gamma =   90.000
     NFFT1 =   36       NFFT2 =   40       NFFT3 =   36
     Cutoff=    8.000   Tol   =0.100E-04
     Ewald Coefficient =  0.34864
     Interpolation order =    4
     TI Mask 1 :1; matches     43 atoms
     TI Mask 2 :2; matches     43 atoms
     TI region 1:    4072 atoms
     TI region 2:    4072 atoms
     SC Mask 1 :1@H34; matches      1 atoms
     SC Mask 2 :2@Cl18; matches      1 atoms
Removing charge of       0.1510 from atom      43
Removing charge of      -0.0609 from atom      86
Total charge of   0.09010100 removed from       2 atoms

    MBAR - lambda values considered:
      12 total:  0.0000 0.0479 0.1150 0.2063 0.3160 0.4373 0.5626 0.6839 0.7936 0.8849 0.9520 1.0000
    Extra energies will be computed    500 times.
 Noshake mask :1,2; matches      86 atoms.

--------------------------------------------------------------------------------
   3.  ATOMIC COORDINATES AND VELOCITIES
--------------------------------------------------------------------------------

L0
 begin time read from input coords =    20.000 ps

     Molecule     1 is partially softcore
     Molecule     2 is partially softcore
 Number of triangulated 3-point waters found:     1343
   Removing shake constraints from C22   L0    1 -- H41   L0    1
   Removing shake constraints from C22   L0    1 -- H42   L0    1
   Removing shake constraints from C21   L0    1 -- H39   L0    1
   Removing shake constraints from C21   L0    1 -- H40   L0    1
   Removing shake constraints from C20   L0    1 -- H38   L0    1
   Removing shake constraints from C19   L0    1 -- H37   L0    1
   Removing shake constraints from C18   L0    1 -- H36   L0    1
   Removing shake constraints from C15   L0    1 -- H35   L0    1
   Removing shake constraints from C14   L0    1 -- H34   L0    1
   Removing shake constraints from C13   L0    1 -- H33   L0    1
   Removing shake constraints from C10   L0    1 -- H32   L0    1
   Removing shake constraints from C9    L0    1 -- H31   L0    1
   Removing shake constraints from C8    L0    1 -- H30   L0    1
   Removing shake constraints from N5    L0    1 -- H29   L0    1
   Removing shake constraints from N4    L0    1 -- H43   L0    1
   Removing shake constraints from N4    L0    1 -- H28   L0    1
   Removing shake constraints from C1    L0    1 -- H25   L0    1
   Removing shake constraints from C1    L0    1 -- H26   L0    1
   Removing shake constraints from C1    L0    1 -- H27   L0    1
   Removing shake constraints from C23   L1    2 -- H41   L1    2
   Removing shake constraints from C23   L1    2 -- H42   L1    2
   Removing shake constraints from C22   L1    2 -- H39   L1    2
   Removing shake constraints from C22   L1    2 -- H40   L1    2
   Removing shake constraints from C21   L1    2 -- H38   L1    2
   Removing shake constraints from C20   L1    2 -- H37   L1    2
   Removing shake constraints from C13   L1    2 -- H34   L1    2
   Removing shake constraints from C16   L1    2 -- H35   L1    2
   Removing shake constraints from C19   L1    2 -- H36   L1    2
   Removing shake constraints from C10   L1    2 -- H33   L1    2
   Removing shake constraints from C9    L1    2 -- H32   L1    2
   Removing shake constraints from C8    L1    2 -- H31   L1    2
   Removing shake constraints from N5    L1    2 -- H30   L1    2
   Removing shake constraints from N4    L1    2 -- H43   L1    2
   Removing shake constraints from N4    L1    2 -- H29   L1    2
   Removing shake constraints from C1    L1    2 -- H26   L1    2
   Removing shake constraints from C1    L1    2 -- H27   L1    2
   Removing shake constraints from C1    L1    2 -- H28   L1    2
 WARNING: SHAKEn bond for atoms       14       43 is partially softcore.
 Coordinates for common atoms will be synchronized from V0.
 Consider using noshake mask or disabling SHAKE.

 Number of shake restraints removed in TI region  1 :       19
 Number of shake restraints removed in TI region  2 :       18

     Sum of charges for TI region  1 =   0.84897300
     Assuming uniform neutralizing plasma

     Sum of charges for TI region  2 =   1.06096699
     Assuming uniform neutralizing plasma

--------------------------------------------------------------------------------
   4.  RESULTS
 NSTEP =     1000   TIME(PS) =      22.000  TEMP(K) =   288.22  PRESS =     0.0
 Etot   =    -10987.1540  EKtot   =      2339.3550  EPtot      =    -13326.5090
 BOND   =        18.5580  ANGLE   =        32.0813  DIHED      =        18.8386
 1-4 NB =         8.3248  1-4 EEL =       -68.3157  VDWAALS    =      2102.7359
 EELEC  =    -15438.7318  EHBOND  =         0.0000  RESTRAINT  =         0.0000
 EKCMT  =         0.0000  VIRIAL  =         0.0000  VOLUME     =     41973.4982
                                                    Density    =         0.9707
 DV/DL  =        -1.1494
 ------------------------------------------------------------------------------

      A V E R A G E S   O V E R   50000 S T E P S

 NSTEP =    50000   TIME(PS) =     120.000  TEMP(K) =   297.43  PRESS =     0.0
 Etot   =    -10466.6423  EKtot   =      2414.1330  EPtot      =    -12880.7754
 BOND   =        17.9921  ANGLE   =        32.1703  DIHED      =        18.2259
 1-4 NB =         7.7864  1-4 EEL =       -72.2927  VDWAALS    =      1911.8414
 EELEC  =    -14796.4987  EHBOND  =         0.0000  RESTRAINT  =         0.0000
 EKCMT  =         0.0000  VIRIAL  =         0.0000  VOLUME     =     41180.8389
                                                    Density    =         0.9894
 DV/DL  =         0.7095
 ------------------------------------------------------------------------------

      R M S  F L U C T U A T I O N S

 NSTEP =    50000   TIME(PS) =     120.000  TEMP(K) =    10.65  PRESS =     0.0
 Etot   =       277.2324  EKtot   =        86.4102  EPtot      =       199.8645
 BOND   =         3.7878  ANGLE   =         3.2656  DIHED      =         2.6439
 1-4 NB =         0.8493  1-4 EEL =         2.4909  VDWAALS    =       102.5666
 EELEC  =       291.3285  EHBOND  =         0.0000  RESTRAINT  =         0.0000
 EKCMT  =         0.0000  VIRIAL  =         0.0000  VOLUME     =       299.4484
                                                    Density    =         0.0072
 DV/DL  =         2.6843
 ------------------------------------------------------------------------------

      A V E R A G E S   O V E R   50000 S T E P S

 NSTEP =    50000   TIME(PS) =     120.000  TEMP(K) =   297.42  PRESS =     0.0
 Etot   =    -10466.6858  EKtot   =      2414.0896  EPtot      =    -12880.7754
 BOND   =        17.9921  ANGLE   =        32.1703  DIHED      =        18.2259
 1-4 NB =         7.7864  1-4 EEL =       -72.2927  VDWAALS    =      1911.8414
 EELEC  =    -14796.4987  EHBOND  =         0.0000  RESTRAINT  =         0.0000
 EKCMT  =         0.0000  VIRIAL  =         0.0000  VOLUME     =     41180.8389
                                                    Density    =         0.9908
 DV/DL  =         0.7095
 ------------------------------------------------------------------------------

      R M S  F L U C T U A T I O N S

 NSTEP =    50000   TIME(PS) =     120.000  TEMP(K) =    10.64  PRESS =     0.0
 Etot   =       277.2241  EKtot   =        86.3981  EPtot      =       199.8645
 BOND   =         3.7878  ANGLE   =         3.2656  DIHED      =         2.6439
 1-4 NB =         0.8493  1-4 EEL =         2.4909  VDWAALS    =       102.5666
 EELEC  =       291.3285  EHBOND  =         0.0000  RESTRAINT  =         0.0000
 EKCMT  =         0.0000  VIRIAL  =         0.0000  VOLUME     =       299.4484
                                                    Density    =         0.0072
 DV/DL  =         2.6843
 ------------------------------------------------------------------------------

      DV/DL, AVERAGES OVER   50000 STEPS

 NSTEP =    50000   TIME(PS) =     120.000  TEMP(K) =    10.64  PRESS =     0.0
 Etot   =         0.0000  EKtot   =         0.0000  EPtot      =         0.7020
 BOND   =         0.0000  ANGLE   =         0.0000  DIHED      =         0.0000
 1-4 NB =         0.0000  1-4 EEL =         0.0000  VDWAALS    =        -0.2548
 EELEC  =        -0.2356  EHBOND  =         0.0000  RESTRAINT  =         0.0000
 EKCMT  =         0.0000  VIRIAL  =         0.0000  VOLUME     =         0.0000
                                                    Density    =         0.0000
 DV/DL  =         0.7020
 ------------------------------------------------------------------------------

      A V E R A G E S   O V E R   50000 S T E P S

 NSTEP =   100000   TIME(PS) =     220.000  TEMP(K) =   299.17  PRESS =     0.0
 Etot   =    -10407.9738  EKtot   =      2428.2659  EPtot      =    -12836.2397
 BOND   =        17.7648  ANGLE   =        32.1265  DIHED      =        18.9151
 1-4 NB =         7.7896  1-4 EEL =       -71.6309  VDWAALS    =      1896.4439
 EELEC  =    -14737.6488  EHBOND  =         0.0000  RESTRAINT  =         0.0000
 EKCMT  =         0.0000  VIRIAL  =         0.0000  VOLUME     =     41299.1404
                                                    Density    =         0.9866
 DV/DL  =         0.6573
 ------------------------------------------------------------------------------

      R M S  F L U C T U A T I O N S

 NSTEP =   100000   TIME(PS) =     220.000  TEMP(K) =     4.64  PRESS =     0.0
 Etot   =        72.2954  EKtot   =        37.6275  EPtot      =        59.8741
 BOND   =         3.7429  ANGLE   =         3.1532  DIHED      =         2.8010
 1-4 NB =         0.8662  1-4 EEL =         2.6725  VDWAALS    =        58.3110
 EELEC  =        96.8559  EHBOND  =         0.0000  RESTRAINT  =         0.0000
 EKCMT  =         0.0000  VIRIAL  =         0.0000  VOLUME     =       346.6838
                                                    Density    =         0.0083
 DV/DL  =         2.7691
 ------------------------------------------------------------------------------

      A V E R A G E S   O V E R   50000 S T E P S

 NSTEP =   100000   TIME(PS) =     220.000  TEMP(K) =   299.17  PRESS =     0.0
 Etot   =    -10407.9612  EKtot   =      2428.2785  EPtot      =    -12836.2397
 BOND   =        17.7648  ANGLE   =        32.1265  DIHED      =        18.9151
 1-4 NB =         7.7896  1-4 EEL =       -71.6309  VDWAALS    =      1896.4439
 EELEC  =    -14737.6488  EHBOND  =         0.0000  RESTRAINT  =         0.0000
 EKCMT  =         0.0000  VIRIAL  =         0.0000  VOLUME     =     41299.1404
                                                    Density    =         0.9880
 DV/DL  =         0.6573
 ------------------------------------------------------------------------------

      R M S  F L U C T U A T I O N S

 NSTEP =   100000   TIME(PS) =     220.000  TEMP(K) =     4.64  PRESS =     0.0
 Etot   =        72.3017  EKtot   =        37.6313  EPtot      =        59.8741
 BOND   =         3.7429  ANGLE   =         3.1532  DIHED      =         2.8010
 1-4 NB =         0.8662  1-4 EEL =         2.6725  VDWAALS    =        58.3110
 EELEC  =        96.8559  EHBOND  =         0.0000  RESTRAINT  =         0.0000
 EKCMT  =         0.0000  VIRIAL  =         0.0000  VOLUME     =       346.6838
                                                    Density    =         0.0083
 DV/DL  =         2.7691
 ------------------------------------------------------------------------------

      DV/DL, AVERAGES OVER   50000 STEPS

 NSTEP =   100000   TIME(PS) =     220.000  TEMP(K) =     4.64  PRESS =     0.0
 Etot   =         0.0000  EKtot   =         0.0000  EPtot      =         0.6505
 BOND   =         0.0000  ANGLE   =         0.0000  DIHED      =         0.0000
 1-4 NB =         0.0000  1-4 EEL =         0.0000  VDWAALS    =        -0.2541
 EELEC  =        -0.2355  EHBOND  =         0.0000  RESTRAINT  =         0.0000
 EKCMT  =         0.0000  VIRIAL  =         0.0000  VOLUME     =         0.0000
                                                    Density    =         0.0000
 DV/DL  =         0.6505
 ------------------------------------------------------------------------------

      A V E R A G E S   O V E R   50000 S T E P S

 NSTEP =   500000   TIME(PS) =    1020.000  TEMP(K) =   299.21  PRESS =     0.0
 Etot   =    -10410.1898  EKtot   =      2428.5832  EPtot      =    -12838.7729
 BOND   =        18.0713  ANGLE   =        32.1734  DIHED      =        18.8070
 1-4 NB =         7.8793  1-4 EEL =       -69.2672  VDWAALS    =      1897.6502
 EELEC  =    -14744.0870  EHBOND  =         0.0000  RESTRAINT  =         0.0000
 EKCMT  =         0.0000  VIRIAL  =         0.0000  VOLUME     =     41203.6637
                                                    Density    =         0.9889
 DV/DL  =         0.7578
 ------------------------------------------------------------------------------

      R M S  F L U C T U A T I O N S

 NSTEP =   500000   TIME(PS) =    1020.000  TEMP(K) =     4.69  PRESS =     0.0
 Etot   =        65.8832  EKtot   =        38.0687  EPtot      =        54.9713
 BOND   =         3.6939  ANGLE   =         3.1723  DIHED      =         2.6836
 1-4 NB =         0.8952  1-4 EEL =         1.9322  VDWAALS    =        58.6417
 EELEC  =        91.7780  EHBOND  =         0.0000  RESTRAINT  =         0.0000
 EKCMT  =         0.0000  VIRIAL  =         0.0000  VOLUME     =       300.4977
                                                    Density    =         0.0072
 DV/DL  =         2.8736
 ------------------------------------------------------------------------------

      A V E R A G E S   O V E R   50000 S T E P S

 NSTEP =   500000   TIME(PS) =    1020.000  TEMP(K) =   299.21  PRESS =     0.0
 Etot   =    -10410.2163  EKtot   =      2428.5567  EPtot      =    -12838.7729
 BOND   =        18.0713  ANGLE   =        32.1734  DIHED      =        18.8070
 1-4 NB =         7.8793  1-4 EEL =       -69.2672  VDWAALS    =      1897.6502
 EELEC  =    -14744.0870  EHBOND  =         0.0000  RESTRAINT  =         0.0000
 EKCMT  =         0.0000  VIRIAL  =         0.0000  VOLUME     =     41203.6637
                                                    Density    =         0.9903
 DV/DL  =         0.7578
 ------------------------------------------------------------------------------

      R M S  F L U C T U A T I O N S

 NSTEP =   500000   TIME(PS) =    1020.000  TEMP(K) =     4.70  PRESS =     0.0
 Etot   =        65.9928  EKtot   =        38.1378  EPtot      =        54.9713
 BOND   =         3.6939  ANGLE   =         3.1723  DIHED      =         2.6836
 1-4 NB =         0.8952  1-4 EEL =         1.9322  VDWAALS    =        58.6417
 EELEC  =        91.7780  EHBOND  =         0.0000  RESTRAINT  =         0.0000
 EKCMT  =         0.0000  VIRIAL  =         0.0000  VOLUME     =       300.4977
                                                    Density    =         0.0072
 DV/DL  =         2.8736
 ------------------------------------------------------------------------------

      DV/DL, AVERAGES OVER   50000 STEPS

 NSTEP =   500000   TIME(PS) =    1020.000  TEMP(K) =     4.70  PRESS =     0.0
 Etot   =         0.0000  EKtot   =         0.0000  EPtot      =         0.7508
 BOND   =         0.0000  ANGLE   =         0.0000  DIHED      =         0.0000
 1-4 NB =         0.0000  1-4 EEL =         0.0000  VDWAALS    =        -0.2547
 EELEC  =        -0.2356  EHBOND  =         0.0000  RESTRAINT  =         0.0000
 EKCMT  =         0.0000  VIRIAL  =         0.0000  VOLUME     =         0.0000
                                                    Density    =         0.0000
 DV/DL  =         0.7508
 ------------------------------------------------------------------------------

      A V E R A G E S   O V E R  500000 S T E P S

 NSTEP =   500000   TIME(PS) =    1020.000  TEMP(K) =   298.75  PRESS =     0.0
 Etot   =    -10416.0157  EKtot   =      2424.8870  EPtot      =    -12840.9027
 BOND   =        18.0819  ANGLE   =        32.2339  DIHED      =        18.4360
 1-4 NB =         7.9362  1-4 EEL =       -69.9033  VDWAALS    =      1898.4817
 EELEC  =    -14746.1692  EHBOND  =         0.0000  RESTRAINT  =         0.0000
 EKCMT  =         0.0000  VIRIAL  =         0.0000  VOLUME     =     41289.5814
                                                    Density    =         0.9868
 DV/DL  =         0.7336
 ------------------------------------------------------------------------------

      R M S  F L U C T U A T I O N S

 NSTEP =   500000   TIME(PS) =    1020.000  TEMP(K) =     5.59  PRESS =     0.0
 Etot   =       109.4988  EKtot   =        45.4023  EPtot      =        83.2487
 BOND   =         3.8036  ANGLE   =         3.2738  DIHED      =         2.6744
 1-4 NB =         0.8974  1-4 EEL =         2.6939  VDWAALS    =        62.9671
 EELEC  =       126.7595  EHBOND  =         0.0000  RESTRAINT  =         0.0000
 EKCMT  =         0.0000  VIRIAL  =         0.0000  VOLUME     =       306.6683
                                                    Density    =         0.0073
 DV/DL  =         2.8063
 ------------------------------------------------------------------------------

      A V E R A G E S   O V E R  500000 S T E P S

 NSTEP =   500000   TIME(PS) =    1020.000  TEMP(K) =   298.75  PRESS =     0.0
 Etot   =    -10416.0076  EKtot   =      2424.8951  EPtot      =    -12840.9027
 BOND   =        18.0819  ANGLE   =        32.2339  DIHED      =        18.4360
 1-4 NB =         7.9362  1-4 EEL =       -69.9033  VDWAALS    =      1898.4817
 EELEC  =    -14746.1692  EHBOND  =         0.0000  RESTRAINT  =         0.0000
 EKCMT  =         0.0000  VIRIAL  =         0.0000  VOLUME     =     41289.5814
                                                    Density    =         0.9882
 DV/DL  =         0.7336
 ------------------------------------------------------------------------------

      R M S  F L U C T U A T I O N S

 NSTEP =   500000   TIME(PS) =    1020.000  TEMP(K) =     5.59  PRESS =     0.0
 Etot   =       109.4970  EKtot   =        45.4029  EPtot      =        83.2487
 BOND   =         3.8036  ANGLE   =         3.2738  DIHED      =         2.6744
 1-4 NB =         0.8974  1-4 EEL =         2.6939  VDWAALS    =        62.9671
 EELEC  =       126.7595  EHBOND  =         0.0000  RESTRAINT  =         0.0000
 EKCMT  =         0.0000  VIRIAL  =         0.0000  VOLUME     =       306.6683
                                                    Density    =         0.0073
 DV/DL  =         2.8063
 ------------------------------------------------------------------------------

      DV/DL, AVERAGES OVER  500000 STEPS

 NSTEP =   500000   TIME(PS) =    1020.000  TEMP(K) =     5.59  PRESS =     0.0
 Etot   =         0.0000  EKtot   =         0.0000  EPtot      =         0.7265
 BOND   =         0.0000  ANGLE   =         0.0000  DIHED      =         0.0000
 1-4 NB =         0.0000  1-4 EEL =         0.0000  VDWAALS    =        -0.2542
 EELEC  =        -0.2355  EHBOND  =         0.0000  RESTRAINT  =         0.0000
 EKCMT  =         0.0000  VIRIAL  =         0.0000  VOLUME     =         0.0000
                                                    Density    =         0.0000
 DV/DL  =         0.7265
 ------------------------------------------------------------------------------
