-------------------------------------------------------
          Amber 16 PMEMD                              2016
          -------------------------------------------------------

  [-O]verwriting output

File Assignments:

 Here is the input file:

TI/FEP, NpT, vdW+bonded transformation
 &cntrl
 ! please adjust namelist parameters to your needs!

 ! parameters for general MD
 imin = 0, nstlim = 500000, irest = 1, ntx = 5, dt = 0.002,
 ntt = 3, temp0 = 298.0, gamma_ln = 2.0, ig = -1,
 ntb = 2,
 ntp = 1, barostat = 2, pres0 = 1.01325, taup = 2.0,
 ntwe = 100, ntwx = 10000, ntpr = 1000, ntwr = 50000, ntave = 50000,
 ioutfm = 1, iwrap = 1, ntxo = 2,

 ! parameters for alchemical free energy simulation
 ntc = 2, ntf = 1,
 noshakemask = ':1,2',

 icfe = 1, ifsc = 1, clambda = 0.3160, scalpha = 0.5, scbeta = 12.0,
 ifmbar = 1, mbar_lambda = 0.0 0.0479 0.1150 0.2063 0.3160 0.4373 0.5626 0.6839
 mbar_states = 12, bar_intervall = 1000,   ! ntpr = bar_intervall for alchemica

 timask1=':1', timask2=':2',
scmask1=':1@H34',
scmask2=':2@Cl18',
 crgmask = ':1@H34 | :2@Cl18',
 /
 &ewald
 /

Note: ig = -1. Setting random seed to   458533 based on wallclock time in
      microseconds.

--------------------------------------------------------------------------------
   1.  RESOURCE   USE:
--------------------------------------------------------------------------------

 getting box info from netcdf restart file
 NATOM  =    4115 NTYPES =      13 NBONH =    4066 MBONA  =      55
 NTHETH =      78 MTHETA =      84 NPHIH =     153 MPHIA  =     133
 NHPARM =       0 NPARM  =       0 NNB   =    5842 NRES   =    1345
 NBONA  =      55 NTHETA =      84 NPHIA =     133 NUMBND =      22
 NUMANG =      35 NPTRA  =      14 NATYP =      17 NPHB   =       1
 IFBOX  =       1 NMXRS  =      43 IFCAP =       0 NEXTRA =       0
 NCOPY  =       0

     BOX TYPE: RECTILINEAR

--------------------------------------------------------------------------------
   2.  CONTROL  DATA  FOR  THE  RUN
--------------------------------------------------------------------------------

L0

General flags:
     imin    =       0, nmropt  =       0

Nature and format of input:
     ntx     =       5, irest   =       1, ntrx    =       1

Nature and format of output:
     ntxo    =       2, ntpr    =    1000, ntrx    =       1, ntwr    =   50000
     iwrap   =       1, ntwx    =   10000, ntwv    =       0, ntwe    =     100
     ioutfm  =       1, ntwprt  =       0, idecomp =       0, rbornstat=      0

Potential function:
     ntf     =       1, ntb     =       2, igb     =       0, nsnb    =      25
     ipol    =       0, gbsa    =       0, iesp    =       0
     dielc   =   1.00000, cut     =   8.00000, intdiel =   1.00000

Frozen or restrained atoms:
     ibelly  =       0, ntr     =       0

Molecular dynamics:
     nstlim  =    500000, nscm    =      1000, nrespa  =         1
     t       =   0.00000, dt      =   0.00200, vlimit  =  -1.00000

Langevin dynamics temperature regulation:
     ig      =  458533
     temp0   = 298.00000, tempi   =   0.00000, gamma_ln=   2.00000

Pressure regulation:
     ntp     =       1
     pres0   =   1.01325, comp    =  44.60000, taup    =   2.00000
     Monte-Carlo Barostat:
     mcbarint  =     100

SHAKE:
     ntc     =       2, jfastw  =       0
     tol     =   0.00001

Free energy options:
     icfe    =       1, ifsc    =       1, klambda =       1
     clambda =  0.3160, scalpha =  0.5000, scbeta  = 12.0000
     sceeorder =       2
     dynlmb =  0.0000 logdvdl =       0

FEP MBAR options:
     ifmbar  =       1,  bar_intervall =     1000
     mbar_states =      12

Ewald parameters:
     verbose =       0, ew_type =       0, nbflag  =       1, use_pme =       1
     vdwmeth =       1, eedmeth =       1, netfrc  =       1
     Box X =   32.703   Box Y =   37.439   Box Z =   33.758
     Alpha =   90.000   Beta  =   90.000   Gamma =   90.000
     NFFT1 =   36       NFFT2 =   40       NFFT3 =   36
     Cutoff=    8.000   Tol   =0.100E-04
     Ewald Coefficient =  0.34864
     Interpolation order =    4
     TI Mask 1 :1; matches     43 atoms
     TI Mask 2 :2; matches     43 atoms
     TI region 1:    4072 atoms
     TI region 2:    4072 atoms
     SC Mask 1 :1@H34; matches      1 atoms
     SC Mask 2 :2@Cl18; matches      1 atoms
Removing charge of       0.1510 from atom      43
Removing charge of      -0.0609 from atom      86
Total charge of   0.09010100 removed from       2 atoms

    MBAR - lambda values considered:
      12 total:  0.0000 0.0479 0.1150 0.2063 0.3160 0.4373 0.5626 0.6839 0.7936 0.8849 0.9520 1.0000
    Extra energies will be computed    500 times.
 Noshake mask :1,2; matches      86 atoms.

--------------------------------------------------------------------------------
   3.  ATOMIC COORDINATES AND VELOCITIES
--------------------------------------------------------------------------------

L0
 begin time read from input coords =    20.000 ps

     Molecule     1 is partially softcore
     Molecule     2 is partially softcore
 Number of triangulated 3-point waters found:     1343
   Removing shake constraints from C22   L0    1 -- H41   L0    1
   Removing shake constraints from C22   L0    1 -- H42   L0    1
   Removing shake constraints from C21   L0    1 -- H39   L0    1
   Removing shake constraints from C21   L0    1 -- H40   L0    1
   Removing shake constraints from C20   L0    1 -- H38   L0    1
   Removing shake constraints from C19   L0    1 -- H37   L0    1
   Removing shake constraints from C18   L0    1 -- H36   L0    1
   Removing shake constraints from C15   L0    1 -- H35   L0    1
   Removing shake constraints from C14   L0    1 -- H34   L0    1
   Removing shake constraints from C13   L0    1 -- H33   L0    1
   Removing shake constraints from C10   L0    1 -- H32   L0    1
   Removing shake constraints from C9    L0    1 -- H31   L0    1
   Removing shake constraints from C8    L0    1 -- H30   L0    1
   Removing shake constraints from N5    L0    1 -- H29   L0    1
   Removing shake constraints from N4    L0    1 -- H43   L0    1
   Removing shake constraints from N4    L0    1 -- H28   L0    1
   Removing shake constraints from C1    L0    1 -- H25   L0    1
   Removing shake constraints from C1    L0    1 -- H26   L0    1
   Removing shake constraints from C1    L0    1 -- H27   L0    1
   Removing shake constraints from C23   L1    2 -- H41   L1    2
   Removing shake constraints from C23   L1    2 -- H42   L1    2
   Removing shake constraints from C22   L1    2 -- H39   L1    2
   Removing shake constraints from C22   L1    2 -- H40   L1    2
   Removing shake constraints from C21   L1    2 -- H38   L1    2
   Removing shake constraints from C20   L1    2 -- H37   L1    2
   Removing shake constraints from C13   L1    2 -- H34   L1    2
   Removing shake constraints from C16   L1    2 -- H35   L1    2
   Removing shake constraints from C19   L1    2 -- H36   L1    2
   Removing shake constraints from C10   L1    2 -- H33   L1    2
   Removing shake constraints from C9    L1    2 -- H32   L1    2
   Removing shake constraints from C8    L1    2 -- H31   L1    2
   Removing shake constraints from N5    L1    2 -- H30   L1    2
   Removing shake constraints from N4    L1    2 -- H43   L1    2
   Removing shake constraints from N4    L1    2 -- H29   L1    2
   Removing shake constraints from C1    L1    2 -- H26   L1    2
   Removing shake constraints from C1    L1    2 -- H27   L1    2
   Removing shake constraints from C1    L1    2 -- H28   L1    2
 WARNING: SHAKEn bond for atoms       14       43 is partially softcore.
 Coordinates for common atoms will be synchronized from V0.
 Consider using noshake mask or disabling SHAKE.

 Number of shake restraints removed in TI region  1 :       19
 Number of shake restraints removed in TI region  2 :       18

     Sum of charges for TI region  1 =   0.84897300
     Assuming uniform neutralizing plasma

     Sum of charges for TI region  2 =   1.06096699
     Assuming uniform neutralizing plasma

--------------------------------------------------------------------------------
   4.  RESULTS
 NSTEP =     1000   TIME(PS) =      22.000  TEMP(K) =   280.82  PRESS =     0.0
 Etot   =    -10991.9198  EKtot   =      2279.2969  EPtot      =    -13271.2167
 BOND   =        19.1408  ANGLE   =        32.9033  DIHED      =        18.1192
 1-4 NB =         7.2151  1-4 EEL =       -68.1900  VDWAALS    =      2118.9447
 EELEC  =    -15399.3498  EHBOND  =         0.0000  RESTRAINT  =         0.0000
 EKCMT  =         0.0000  VIRIAL  =         0.0000  VOLUME     =     41396.4129
                                                    Density    =         0.9842
 DV/DL  =         1.9668
 ------------------------------------------------------------------------------

      A V E R A G E S   O V E R   50000 S T E P S

 NSTEP =    50000   TIME(PS) =     120.000  TEMP(K) =   297.77  PRESS =     0.0
 Etot   =    -10446.3042  EKtot   =      2416.8840  EPtot      =    -12863.1882
 BOND   =        17.6860  ANGLE   =        32.0729  DIHED      =        18.2498
 1-4 NB =         7.9452  1-4 EEL =       -69.2286  VDWAALS    =      1909.2752
 EELEC  =    -14779.1886  EHBOND  =         0.0000  RESTRAINT  =         0.0000
 EKCMT  =         0.0000  VIRIAL  =         0.0000  VOLUME     =     41347.1249
                                                    Density    =         0.9855
 DV/DL  =         4.0821
 ------------------------------------------------------------------------------

      R M S  F L U C T U A T I O N S

 NSTEP =    50000   TIME(PS) =     120.000  TEMP(K) =    10.58  PRESS =     0.0
 Etot   =       284.9188  EKtot   =        85.8759  EPtot      =       208.3669
 BOND   =         3.7601  ANGLE   =         3.2098  DIHED      =         2.6300
 1-4 NB =         0.9143  1-4 EEL =         2.8556  VDWAALS    =       107.9547
 EELEC  =       304.1499  EHBOND  =         0.0000  RESTRAINT  =         0.0000
 EKCMT  =         0.0000  VIRIAL  =         0.0000  VOLUME     =       355.7736
                                                    Density    =         0.0085
 DV/DL  =         3.0911
 ------------------------------------------------------------------------------

      A V E R A G E S   O V E R   50000 S T E P S

 NSTEP =    50000   TIME(PS) =     120.000  TEMP(K) =   297.77  PRESS =     0.0
 Etot   =    -10446.3027  EKtot   =      2416.8855  EPtot      =    -12863.1882
 BOND   =        17.6860  ANGLE   =        32.0729  DIHED      =        18.2498
 1-4 NB =         7.9452  1-4 EEL =       -69.2286  VDWAALS    =      1909.2752
 EELEC  =    -14779.1886  EHBOND  =         0.0000  RESTRAINT  =         0.0000
 EKCMT  =         0.0000  VIRIAL  =         0.0000  VOLUME     =     41347.1249
                                                    Density    =         0.9869
 DV/DL  =         4.0821
 ------------------------------------------------------------------------------

      R M S  F L U C T U A T I O N S

 NSTEP =    50000   TIME(PS) =     120.000  TEMP(K) =    10.58  PRESS =     0.0
 Etot   =       284.9290  EKtot   =        85.8935  EPtot      =       208.3669
 BOND   =         3.7601  ANGLE   =         3.2098  DIHED      =         2.6300
 1-4 NB =         0.9143  1-4 EEL =         2.8556  VDWAALS    =       107.9547
 EELEC  =       304.1499  EHBOND  =         0.0000  RESTRAINT  =         0.0000
 EKCMT  =         0.0000  VIRIAL  =         0.0000  VOLUME     =       355.7736
                                                    Density    =         0.0085
 DV/DL  =         3.0911
 ------------------------------------------------------------------------------

      DV/DL, AVERAGES OVER   50000 STEPS

 NSTEP =    50000   TIME(PS) =     120.000  TEMP(K) =    10.58  PRESS =     0.0
 Etot   =         0.0000  EKtot   =         0.0000  EPtot      =         4.0413
 BOND   =         0.0000  ANGLE   =         0.0000  DIHED      =         0.0000
 1-4 NB =         0.0000  1-4 EEL =         0.0000  VDWAALS    =        -0.2538
 EELEC  =        -0.2355  EHBOND  =         0.0000  RESTRAINT  =         0.0000
 EKCMT  =         0.0000  VIRIAL  =         0.0000  VOLUME     =         0.0000
                                                    Density    =         0.0000
 DV/DL  =         4.0413
 ------------------------------------------------------------------------------

      A V E R A G E S   O V E R   50000 S T E P S

 NSTEP =   100000   TIME(PS) =     220.000  TEMP(K) =   298.97  PRESS =     0.0
 Etot   =    -10406.9306  EKtot   =      2426.6417  EPtot      =    -12833.5723
 BOND   =        17.7005  ANGLE   =        32.0146  DIHED      =        18.8129
 1-4 NB =         7.8404  1-4 EEL =       -71.5070  VDWAALS    =      1897.5142
 EELEC  =    -14735.9478  EHBOND  =         0.0000  RESTRAINT  =         0.0000
 EKCMT  =         0.0000  VIRIAL  =         0.0000  VOLUME     =     41366.6465
                                                    Density    =         0.9850
 DV/DL  =         3.3986
 ------------------------------------------------------------------------------

      R M S  F L U C T U A T I O N S

 NSTEP =   100000   TIME(PS) =     220.000  TEMP(K) =     4.75  PRESS =     0.0
 Etot   =        73.8269  EKtot   =        38.5348  EPtot      =        59.5113
 BOND   =         3.6811  ANGLE   =         3.2378  DIHED      =         2.8163
 1-4 NB =         0.8432  1-4 EEL =         1.6558  VDWAALS    =        57.8063
 EELEC  =        94.0755  EHBOND  =         0.0000  RESTRAINT  =         0.0000
 EKCMT  =         0.0000  VIRIAL  =         0.0000  VOLUME     =       351.7478
                                                    Density    =         0.0084
 DV/DL  =         3.0142
 ------------------------------------------------------------------------------

      A V E R A G E S   O V E R   50000 S T E P S

 NSTEP =   100000   TIME(PS) =     220.000  TEMP(K) =   298.97  PRESS =     0.0
 Etot   =    -10406.9249  EKtot   =      2426.6474  EPtot      =    -12833.5723
 BOND   =        17.7005  ANGLE   =        32.0146  DIHED      =        18.8129
 1-4 NB =         7.8404  1-4 EEL =       -71.5070  VDWAALS    =      1897.5142
 EELEC  =    -14735.9478  EHBOND  =         0.0000  RESTRAINT  =         0.0000
 EKCMT  =         0.0000  VIRIAL  =         0.0000  VOLUME     =     41366.6465
                                                    Density    =         0.9864
 DV/DL  =         3.3986
 ------------------------------------------------------------------------------

      R M S  F L U C T U A T I O N S

 NSTEP =   100000   TIME(PS) =     220.000  TEMP(K) =     4.74  PRESS =     0.0
 Etot   =        73.7713  EKtot   =        38.5111  EPtot      =        59.5113
 BOND   =         3.6811  ANGLE   =         3.2378  DIHED      =         2.8163
 1-4 NB =         0.8432  1-4 EEL =         1.6558  VDWAALS    =        57.8063
 EELEC  =        94.0755  EHBOND  =         0.0000  RESTRAINT  =         0.0000
 EKCMT  =         0.0000  VIRIAL  =         0.0000  VOLUME     =       351.7478
                                                    Density    =         0.0084
 DV/DL  =         3.0142
 ------------------------------------------------------------------------------

      DV/DL, AVERAGES OVER   50000 STEPS

 NSTEP =   100000   TIME(PS) =     220.000  TEMP(K) =     4.74  PRESS =     0.0
 Etot   =         0.0000  EKtot   =         0.0000  EPtot      =         3.3642
 BOND   =         0.0000  ANGLE   =         0.0000  DIHED      =         0.0000
 1-4 NB =         0.0000  1-4 EEL =         0.0000  VDWAALS    =        -0.2537
 EELEC  =        -0.2354  EHBOND  =         0.0000  RESTRAINT  =         0.0000
 EKCMT  =         0.0000  VIRIAL  =         0.0000  VOLUME     =         0.0000
                                                    Density    =         0.0000
 DV/DL  =         3.3642
 ------------------------------------------------------------------------------

      A V E R A G E S   O V E R   50000 S T E P S

 NSTEP =   500000   TIME(PS) =    1020.000  TEMP(K) =   298.90  PRESS =     0.0
 Etot   =    -10419.1600  EKtot   =      2426.0622  EPtot      =    -12845.2222
 BOND   =        17.9413  ANGLE   =        32.5134  DIHED      =        18.7366
 1-4 NB =         7.8488  1-4 EEL =       -69.4163  VDWAALS    =      1900.2604
 EELEC  =    -14753.1065  EHBOND  =         0.0000  RESTRAINT  =         0.0000
 EKCMT  =         0.0000  VIRIAL  =         0.0000  VOLUME     =     41132.4360
                                                    Density    =         0.9906
 DV/DL  =         4.3794
 ------------------------------------------------------------------------------

      R M S  F L U C T U A T I O N S

 NSTEP =   500000   TIME(PS) =    1020.000  TEMP(K) =     4.66  PRESS =     0.0
 Etot   =        71.1113  EKtot   =        37.8359  EPtot      =        59.6465
 BOND   =         3.7046  ANGLE   =         3.2919  DIHED      =         2.6882
 1-4 NB =         0.8833  1-4 EEL =         2.7220  VDWAALS    =        58.0085
 EELEC  =        94.7747  EHBOND  =         0.0000  RESTRAINT  =         0.0000
 EKCMT  =         0.0000  VIRIAL  =         0.0000  VOLUME     =       303.0940
                                                    Density    =         0.0073
 DV/DL  =         3.2227
 ------------------------------------------------------------------------------

      A V E R A G E S   O V E R   50000 S T E P S

 NSTEP =   500000   TIME(PS) =    1020.000  TEMP(K) =   298.90  PRESS =     0.0
 Etot   =    -10419.1623  EKtot   =      2426.0599  EPtot      =    -12845.2222
 BOND   =        17.9413  ANGLE   =        32.5134  DIHED      =        18.7366
 1-4 NB =         7.8488  1-4 EEL =       -69.4163  VDWAALS    =      1900.2604
 EELEC  =    -14753.1065  EHBOND  =         0.0000  RESTRAINT  =         0.0000
 EKCMT  =         0.0000  VIRIAL  =         0.0000  VOLUME     =     41132.4360
                                                    Density    =         0.9920
 DV/DL  =         4.3794
 ------------------------------------------------------------------------------

      R M S  F L U C T U A T I O N S

 NSTEP =   500000   TIME(PS) =    1020.000  TEMP(K) =     4.66  PRESS =     0.0
 Etot   =        71.1278  EKtot   =        37.8459  EPtot      =        59.6465
 BOND   =         3.7046  ANGLE   =         3.2919  DIHED      =         2.6882
 1-4 NB =         0.8833  1-4 EEL =         2.7220  VDWAALS    =        58.0085
 EELEC  =        94.7747  EHBOND  =         0.0000  RESTRAINT  =         0.0000
 EKCMT  =         0.0000  VIRIAL  =         0.0000  VOLUME     =       303.0940
                                                    Density    =         0.0073
 DV/DL  =         3.2227
 ------------------------------------------------------------------------------

      DV/DL, AVERAGES OVER   50000 STEPS

 NSTEP =   500000   TIME(PS) =    1020.000  TEMP(K) =     4.66  PRESS =     0.0
 Etot   =         0.0000  EKtot   =         0.0000  EPtot      =         4.3350
 BOND   =         0.0000  ANGLE   =         0.0000  DIHED      =         0.0000
 1-4 NB =         0.0000  1-4 EEL =         0.0000  VDWAALS    =        -0.2551
 EELEC  =        -0.2357  EHBOND  =         0.0000  RESTRAINT  =         0.0000
 EKCMT  =         0.0000  VIRIAL  =         0.0000  VOLUME     =         0.0000
                                                    Density    =         0.0000
 DV/DL  =         4.3350
 ------------------------------------------------------------------------------

      A V E R A G E S   O V E R  500000 S T E P S

 NSTEP =   500000   TIME(PS) =    1020.000  TEMP(K) =   298.54  PRESS =     0.0
 Etot   =    -10420.1353  EKtot   =      2423.1698  EPtot      =    -12843.3052
 BOND   =        17.8784  ANGLE   =        32.2433  DIHED      =        18.5158
 1-4 NB =         7.8548  1-4 EEL =       -70.3897  VDWAALS    =      1900.3948
 EELEC  =    -14749.8026  EHBOND  =         0.0000  RESTRAINT  =         0.0000
 EKCMT  =         0.0000  VIRIAL  =         0.0000  VOLUME     =     41276.2221
                                                    Density    =         0.9872
 DV/DL  =         4.0758
 ------------------------------------------------------------------------------

      R M S  F L U C T U A T I O N S

 NSTEP =   500000   TIME(PS) =    1020.000  TEMP(K) =     5.56  PRESS =     0.0
 Etot   =       111.1096  EKtot   =        45.1529  EPtot      =        85.1579
 BOND   =         3.7778  ANGLE   =         3.2473  DIHED      =         2.7045
 1-4 NB =         0.8680  1-4 EEL =         2.5447  VDWAALS    =        64.1466
 EELEC  =       129.7125  EHBOND  =         0.0000  RESTRAINT  =         0.0000
 EKCMT  =         0.0000  VIRIAL  =         0.0000  VOLUME     =       316.1440
                                                    Density    =         0.0076
 DV/DL  =         3.1248
 ------------------------------------------------------------------------------

      A V E R A G E S   O V E R  500000 S T E P S

 NSTEP =   500000   TIME(PS) =    1020.000  TEMP(K) =   298.55  PRESS =     0.0
 Etot   =    -10420.1006  EKtot   =      2423.2046  EPtot      =    -12843.3052
 BOND   =        17.8784  ANGLE   =        32.2433  DIHED      =        18.5158
 1-4 NB =         7.8548  1-4 EEL =       -70.3897  VDWAALS    =      1900.3948
 EELEC  =    -14749.8026  EHBOND  =         0.0000  RESTRAINT  =         0.0000
 EKCMT  =         0.0000  VIRIAL  =         0.0000  VOLUME     =     41276.2221
                                                    Density    =         0.9886
 DV/DL  =         4.0758
 ------------------------------------------------------------------------------

      R M S  F L U C T U A T I O N S

 NSTEP =   500000   TIME(PS) =    1020.000  TEMP(K) =     5.56  PRESS =     0.0
 Etot   =       111.1084  EKtot   =        45.1546  EPtot      =        85.1579
 BOND   =         3.7778  ANGLE   =         3.2473  DIHED      =         2.7045
 1-4 NB =         0.8680  1-4 EEL =         2.5447  VDWAALS    =        64.1466
 EELEC  =       129.7125  EHBOND  =         0.0000  RESTRAINT  =         0.0000
 EKCMT  =         0.0000  VIRIAL  =         0.0000  VOLUME     =       316.1440
                                                    Density    =         0.0076
 DV/DL  =         3.1248
 ------------------------------------------------------------------------------

      DV/DL, AVERAGES OVER  500000 STEPS

 NSTEP =   500000   TIME(PS) =    1020.000  TEMP(K) =     5.56  PRESS =     0.0
 Etot   =         0.0000  EKtot   =         0.0000  EPtot      =         4.0351
 BOND   =         0.0000  ANGLE   =         0.0000  DIHED      =         0.0000
 1-4 NB =         0.0000  1-4 EEL =         0.0000  VDWAALS    =        -0.2542
 EELEC  =        -0.2355  EHBOND  =         0.0000  RESTRAINT  =         0.0000
 EKCMT  =         0.0000  VIRIAL  =         0.0000  VOLUME     =         0.0000
                                                    Density    =         0.0000
 DV/DL  =         4.0351
 ------------------------------------------------------------------------------
