-------------------------------------------------------
          Amber 16 PMEMD                              2016
          -------------------------------------------------------

  [-O]verwriting output

File Assignments:

 Here is the input file:

TI/FEP, NpT, vdW+bonded transformation
 &cntrl
 ! please adjust namelist parameters to your needs!

 ! parameters for general MD
 imin = 0, nstlim = 500000, irest = 1, ntx = 5, dt = 0.002,
 ntt = 3, temp0 = 298.0, gamma_ln = 2.0, ig = -1,
 ntb = 2,
 ntp = 1, barostat = 2, pres0 = 1.01325, taup = 2.0,
 ntwe = 1000, ntwx = 10000, ntpr = 1000, ntwr = 50000, ntave = 50000,
 ioutfm = 1, iwrap = 1, ntxo = 2,

 ! parameters for alchemical free energy simulation
 ntc = 2, ntf = 1,
 noshakemask = ':1,2',

 icfe = 1, ifsc = 1, clambda = 0.88495, scalpha = 0.5, scbeta = 12.0,
 ifmbar = 0, bar_intervall = 500, bar_l_min = 0.0, bar_l_max = 1.0,
 bar_l_incr = 0.1,   ! ntpr = bar_intervall for alchemical analysis tool

 timask1=':1', timask2=':2',
scmask1='',
scmask2=':2@C28,O29,C30,H50,H51,H52,H53',
 crgmask = '',
 /
 &ewald
 /

Note: ig = -1. Setting random seed to   937610 based on wallclock time in
      microseconds.

--------------------------------------------------------------------------------
   1.  RESOURCE   USE:
--------------------------------------------------------------------------------

 getting box info from netcdf restart file
 NATOM  =    5979 NTYPES =      16 NBONH =    5922 MBONA  =      59
 NTHETH =      86 MTHETA =      80 NPHIH =     132 MPHIA  =     124
 NHPARM =       0 NPARM  =       0 NNB   =    8319 NRES   =    1962
 NBONA  =      59 NTHETA =      80 NPHIA =     124 NUMBND =      21
 NUMANG =      31 NPTRA  =      21 NATYP =      17 NPHB   =       1
 IFBOX  =       1 NMXRS  =      53 IFCAP =       0 NEXTRA =       0
 NCOPY  =       0

     BOX TYPE: RECTILINEAR

--------------------------------------------------------------------------------
   2.  CONTROL  DATA  FOR  THE  RUN
--------------------------------------------------------------------------------

L0

General flags:
     imin    =       0, nmropt  =       0

Nature and format of input:
     ntx     =       5, irest   =       1, ntrx    =       1

Nature and format of output:
     ntxo    =       2, ntpr    =    1000, ntrx    =       1, ntwr    =   50000
     iwrap   =       1, ntwx    =   10000, ntwv    =       0, ntwe    =    1000
     ioutfm  =       1, ntwprt  =       0, idecomp =       0, rbornstat=      0

Potential function:
     ntf     =       1, ntb     =       2, igb     =       0, nsnb    =      25
     ipol    =       0, gbsa    =       0, iesp    =       0
     dielc   =   1.00000, cut     =   8.00000, intdiel =   1.00000

Frozen or restrained atoms:
     ibelly  =       0, ntr     =       0

Molecular dynamics:
     nstlim  =    500000, nscm    =      1000, nrespa  =         1
     t       =   0.00000, dt      =   0.00200, vlimit  =  -1.00000

Langevin dynamics temperature regulation:
     ig      =  937610
     temp0   = 298.00000, tempi   =   0.00000, gamma_ln=   2.00000

Pressure regulation:
     ntp     =       1
     pres0   =   1.01325, comp    =  44.60000, taup    =   2.00000
     Monte-Carlo Barostat:
     mcbarint  =     100

SHAKE:
     ntc     =       2, jfastw  =       0
     tol     =   0.00001

Free energy options:
     icfe    =       1, ifsc    =       1, klambda =       1
     clambda =  0.8850, scalpha =  0.5000, scbeta  = 12.0000
     sceeorder =       2
     dynlmb =  0.0000 logdvdl =       0

Ewald parameters:
     verbose =       0, ew_type =       0, nbflag  =       1, use_pme =       1
     vdwmeth =       1, eedmeth =       1, netfrc  =       1
     Box X =   40.877   Box Y =   43.011   Box Z =   34.124
     Alpha =   90.000   Beta  =   90.000   Gamma =   90.000
     NFFT1 =   48       NFFT2 =   48       NFFT3 =   36
     Cutoff=    8.000   Tol   =0.100E-04
     Ewald Coefficient =  0.34864
     Interpolation order =    4
     TI Mask 1 :1; matches     46 atoms
     TI Mask 2 :2; matches     53 atoms
     TI region 1:    5926 atoms
     TI region 2:    5933 atoms
     SC Mask 2 :2@C28,O29,C30,H50,H51,H52,H53; matches      7 atoms
 Noshake mask :1,2; matches      99 atoms.

--------------------------------------------------------------------------------
   3.  ATOMIC COORDINATES AND VELOCITIES
--------------------------------------------------------------------------------

L0
 begin time read from input coords =    20.000 ps

     Molecule     1 is partially softcore
     Molecule     2 is partially softcore
 Number of triangulated 3-point waters found:     1960
   Removing shake constraints from C27   L0    1 -- H44   L0    1
   Removing shake constraints from C27   L0    1 -- H45   L0    1
   Removing shake constraints from C27   L0    1 -- H46   L0    1
   Removing shake constraints from C25   L0    1 -- H43   L0    1
   Removing shake constraints from C21   L0    1 -- H42   L0    1
   Removing shake constraints from C20   L0    1 -- H39   L0    1
   Removing shake constraints from C20   L0    1 -- H40   L0    1
   Removing shake constraints from C20   L0    1 -- H41   L0    1
   Removing shake constraints from C16   L0    1 -- H37   L0    1
   Removing shake constraints from C16   L0    1 -- H38   L0    1
   Removing shake constraints from N13   L0    1 -- H36   L0    1
   Removing shake constraints from N9    L0    1 -- H35   L0    1
   Removing shake constraints from N9    L0    1 -- H34   L0    1
   Removing shake constraints from C7    L0    1 -- H33   L0    1
   Removing shake constraints from C2    L0    1 -- H31   L0    1
   Removing shake constraints from C2    L0    1 -- H32   L0    1
   Removing shake constraints from C1    L0    1 -- H28   L0    1
   Removing shake constraints from C1    L0    1 -- H29   L0    1
   Removing shake constraints from C1    L0    1 -- H30   L0    1
   Removing shake constraints from C30   INT   2 -- H52   INT   2
   Removing shake constraints from C30   INT   2 -- H53   INT   2
   Removing shake constraints from C30   INT   2 -- H51   INT   2
   Removing shake constraints from C26   INT   2 -- H47   INT   2
   Removing shake constraints from C26   INT   2 -- H48   INT   2
   Removing shake constraints from C26   INT   2 -- H49   INT   2
   Removing shake constraints from C24   INT   2 -- H46   INT   2
   Removing shake constraints from N27   INT   2 -- H50   INT   2
   Removing shake constraints from C21   INT   2 -- H45   INT   2
   Removing shake constraints from C20   INT   2 -- H42   INT   2
   Removing shake constraints from C20   INT   2 -- H43   INT   2
   Removing shake constraints from C20   INT   2 -- H44   INT   2
   Removing shake constraints from C16   INT   2 -- H40   INT   2
   Removing shake constraints from C16   INT   2 -- H41   INT   2
   Removing shake constraints from N13   INT   2 -- H39   INT   2
   Removing shake constraints from N9    INT   2 -- H38   INT   2
   Removing shake constraints from N9    INT   2 -- H37   INT   2
   Removing shake constraints from C7    INT   2 -- H36   INT   2
   Removing shake constraints from C2    INT   2 -- H34   INT   2
   Removing shake constraints from C2    INT   2 -- H35   INT   2
   Removing shake constraints from C1    INT   2 -- H31   INT   2
   Removing shake constraints from C1    INT   2 -- H32   INT   2
   Removing shake constraints from C1    INT   2 -- H33   INT   2
 WARNING: SHAKEn bond for atoms       69       96 is partially softcore.
 Coordinates for common atoms will be synchronized from V0.
 Consider using noshake mask or disabling SHAKE.

 Number of shake restraints removed in TI region  1 :       19
 Number of shake restraints removed in TI region  2 :       23

     Sum of charges for TI region  1 =   0.00001100
     Forcing neutrality...

     Sum of charges for TI region  2 =   0.00001100
     Forcing neutrality...

--------------------------------------------------------------------------------
   4.  RESULTS
 NSTEP =     1000   TIME(PS) =      22.000  TEMP(K) =   284.05  PRESS =     0.0
 Etot   =    -16271.5724  EKtot   =      3352.6050  EPtot      =    -19624.1773
 BOND   =        16.8586  ANGLE   =        17.8683  DIHED      =        11.4423
 1-4 NB =        13.4703  1-4 EEL =      -633.1752  VDWAALS    =      3077.2534
 EELEC  =    -22127.8950  EHBOND  =         0.0000  RESTRAINT  =         0.0000
 EKCMT  =         0.0000  VIRIAL  =         0.0000  VOLUME     =     60797.3847
                                                    Density    =         0.9764
 DV/DL  =       -25.6363
 ------------------------------------------------------------------------------

      A V E R A G E S   O V E R   50000 S T E P S

 NSTEP =    50000   TIME(PS) =     120.000  TEMP(K) =   297.52  PRESS =     0.0
 Etot   =    -15537.0857  EKtot   =      3511.6367  EPtot      =    -19048.7225
 BOND   =        22.9051  ANGLE   =        20.6067  DIHED      =        17.6851
 1-4 NB =        14.8488  1-4 EEL =      -640.2144  VDWAALS    =      2791.5552
 EELEC  =    -21276.1089  EHBOND  =         0.0000  RESTRAINT  =         0.0000
 EKCMT  =         0.0000  VIRIAL  =         0.0000  VOLUME     =     60175.7050
                                                    Density    =         0.9865
 DV/DL  =       -32.0702
 ------------------------------------------------------------------------------

      R M S  F L U C T U A T I O N S

 NSTEP =    50000   TIME(PS) =     120.000  TEMP(K) =    10.11  PRESS =     0.0
 Etot   =       395.1199  EKtot   =       119.3061  EPtot      =       286.5365
 BOND   =         3.9369  ANGLE   =         3.6952  DIHED      =         3.5710
 1-4 NB =         1.4353  1-4 EEL =         4.3882  VDWAALS    =       140.4932
 EELEC  =       413.6833  EHBOND  =         0.0000  RESTRAINT  =         0.0000
 EKCMT  =         0.0000  VIRIAL  =         0.0000  VOLUME     =       388.0765
                                                    Density    =         0.0063
 DV/DL  =         8.0466
 ------------------------------------------------------------------------------

      A V E R A G E S   O V E R   50000 S T E P S

 NSTEP =    50000   TIME(PS) =     120.000  TEMP(K) =   297.46  PRESS =     0.0
 Etot   =    -15531.5637  EKtot   =      3517.1588  EPtot      =    -19048.7225
 BOND   =        22.9051  ANGLE   =        20.6067  DIHED      =        17.6851
 1-4 NB =        14.8488  1-4 EEL =      -640.2144  VDWAALS    =      2791.5552
 EELEC  =    -21276.1089  EHBOND  =         0.0000  RESTRAINT  =         0.0000
 EKCMT  =         0.0000  VIRIAL  =         0.0000  VOLUME     =     60175.7050
                                                    Density    =         0.9877
 DV/DL  =       -32.0702
 ------------------------------------------------------------------------------

      R M S  F L U C T U A T I O N S

 NSTEP =    50000   TIME(PS) =     120.000  TEMP(K) =    10.11  PRESS =     0.0
 Etot   =       395.3568  EKtot   =       119.5352  EPtot      =       286.5365
 BOND   =         3.9369  ANGLE   =         3.6952  DIHED      =         3.5710
 1-4 NB =         1.4353  1-4 EEL =         4.3882  VDWAALS    =       140.4932
 EELEC  =       413.6833  EHBOND  =         0.0000  RESTRAINT  =         0.0000
 EKCMT  =         0.0000  VIRIAL  =         0.0000  VOLUME     =       388.0765
                                                    Density    =         0.0063
 DV/DL  =         8.0466
 ------------------------------------------------------------------------------

      DV/DL, AVERAGES OVER   50000 STEPS

 NSTEP =    50000   TIME(PS) =     120.000  TEMP(K) =    10.11  PRESS =     0.0
 Etot   =         0.0000  EKtot   =         0.0000  EPtot      =       -31.7569
 BOND   =         0.0000  ANGLE   =         0.0000  DIHED      =         0.0000
 1-4 NB =         0.0000  1-4 EEL =         0.0000  VDWAALS    =        -0.3352
 EELEC  =         0.0000  EHBOND  =         0.0000  RESTRAINT  =         0.0000
 EKCMT  =         0.0000  VIRIAL  =         0.0000  VOLUME     =         0.0000
                                                    Density    =         0.0000
 DV/DL  =       -31.7569
 ------------------------------------------------------------------------------

      A V E R A G E S   O V E R   50000 S T E P S

 NSTEP =   100000   TIME(PS) =     220.000  TEMP(K) =   298.11  PRESS =     0.0
 Etot   =    -15515.5356  EKtot   =      3518.5533  EPtot      =    -19034.0890
 BOND   =        23.2694  ANGLE   =        20.4556  DIHED      =        16.3446
 1-4 NB =        14.9987  1-4 EEL =      -639.5616  VDWAALS    =      2789.2054
 EELEC  =    -21258.8011  EHBOND  =         0.0000  RESTRAINT  =         0.0000
 EKCMT  =         0.0000  VIRIAL  =         0.0000  VOLUME     =     60073.4769
                                                    Density    =         0.9881
 DV/DL  =       -32.0309
 ------------------------------------------------------------------------------

      R M S  F L U C T U A T I O N S

 NSTEP =   100000   TIME(PS) =     220.000  TEMP(K) =     3.95  PRESS =     0.0
 Etot   =        84.8532  EKtot   =        46.6177  EPtot      =        69.3364
 BOND   =         3.8877  ANGLE   =         3.5954  DIHED      =         3.4997
 1-4 NB =         1.4425  1-4 EEL =         4.3032  VDWAALS    =        69.1195
 EELEC  =       110.4001  EHBOND  =         0.0000  RESTRAINT  =         0.0000
 EKCMT  =         0.0000  VIRIAL  =         0.0000  VOLUME     =       333.9057
                                                    Density    =         0.0055
 DV/DL  =         7.5657
 ------------------------------------------------------------------------------

      A V E R A G E S   O V E R   50000 S T E P S

 NSTEP =   100000   TIME(PS) =     220.000  TEMP(K) =   298.06  PRESS =     0.0
 Etot   =    -15509.8794  EKtot   =      3524.2096  EPtot      =    -19034.0890
 BOND   =        23.2694  ANGLE   =        20.4556  DIHED      =        16.3446
 1-4 NB =        14.9987  1-4 EEL =      -639.5616  VDWAALS    =      2789.2054
 EELEC  =    -21258.8011  EHBOND  =         0.0000  RESTRAINT  =         0.0000
 EKCMT  =         0.0000  VIRIAL  =         0.0000  VOLUME     =     60073.4769
                                                    Density    =         0.9894
 DV/DL  =       -32.0309
 ------------------------------------------------------------------------------

      R M S  F L U C T U A T I O N S

 NSTEP =   100000   TIME(PS) =     220.000  TEMP(K) =     3.95  PRESS =     0.0
 Etot   =        84.8346  EKtot   =        46.6832  EPtot      =        69.3364
 BOND   =         3.8877  ANGLE   =         3.5954  DIHED      =         3.4997
 1-4 NB =         1.4425  1-4 EEL =         4.3032  VDWAALS    =        69.1195
 EELEC  =       110.4001  EHBOND  =         0.0000  RESTRAINT  =         0.0000
 EKCMT  =         0.0000  VIRIAL  =         0.0000  VOLUME     =       333.9057
                                                    Density    =         0.0055
 DV/DL  =         7.5657
 ------------------------------------------------------------------------------

      DV/DL, AVERAGES OVER   50000 STEPS

 NSTEP =   100000   TIME(PS) =     220.000  TEMP(K) =     3.95  PRESS =     0.0
 Etot   =         0.0000  EKtot   =         0.0000  EPtot      =       -31.7109
 BOND   =         0.0000  ANGLE   =         0.0000  DIHED      =         0.0000
 1-4 NB =         0.0000  1-4 EEL =         0.0000  VDWAALS    =        -0.3358
 EELEC  =         0.0000  EHBOND  =         0.0000  RESTRAINT  =         0.0000
 EKCMT  =         0.0000  VIRIAL  =         0.0000  VOLUME     =         0.0000
                                                    Density    =         0.0000
 DV/DL  =       -31.7109
 ------------------------------------------------------------------------------

      A V E R A G E S   O V E R   50000 S T E P S

 NSTEP =   500000   TIME(PS) =    1020.000  TEMP(K) =   298.71  PRESS =     0.0
 Etot   =    -15478.1088  EKtot   =      3525.6860  EPtot      =    -19003.7948
 BOND   =        23.0783  ANGLE   =        20.0248  DIHED      =        17.8689
 1-4 NB =        15.2409  1-4 EEL =      -639.5147  VDWAALS    =      2770.7959
 EELEC  =    -21211.2891  EHBOND  =         0.0000  RESTRAINT  =         0.0000
 EKCMT  =         0.0000  VIRIAL  =         0.0000  VOLUME     =     60219.9122
                                                    Density    =         0.9857
 DV/DL  =       -31.6239
 ------------------------------------------------------------------------------

      R M S  F L U C T U A T I O N S

 NSTEP =   500000   TIME(PS) =    1020.000  TEMP(K) =     3.97  PRESS =     0.0
 Etot   =        89.8517  EKtot   =        46.8577  EPtot      =        74.0954
 BOND   =         3.7850  ANGLE   =         3.5631  DIHED      =         3.2595
 1-4 NB =         1.4467  1-4 EEL =         4.3093  VDWAALS    =        70.7583
 EELEC  =       119.7418  EHBOND  =         0.0000  RESTRAINT  =         0.0000
 EKCMT  =         0.0000  VIRIAL  =         0.0000  VOLUME     =       353.2142
                                                    Density    =         0.0058
 DV/DL  =         7.6622
 ------------------------------------------------------------------------------

      A V E R A G E S   O V E R   50000 S T E P S

 NSTEP =   500000   TIME(PS) =    1020.000  TEMP(K) =   298.65  PRESS =     0.0
 Etot   =    -15472.6572  EKtot   =      3531.1377  EPtot      =    -19003.7948
 BOND   =        23.0783  ANGLE   =        20.0248  DIHED      =        17.8689
 1-4 NB =        15.2409  1-4 EEL =      -639.5147  VDWAALS    =      2770.7959
 EELEC  =    -21211.2891  EHBOND  =         0.0000  RESTRAINT  =         0.0000
 EKCMT  =         0.0000  VIRIAL  =         0.0000  VOLUME     =     60219.9122
                                                    Density    =         0.9870
 DV/DL  =       -31.6239
 ------------------------------------------------------------------------------

      R M S  F L U C T U A T I O N S

 NSTEP =   500000   TIME(PS) =    1020.000  TEMP(K) =     3.97  PRESS =     0.0
 Etot   =        89.9791  EKtot   =        46.9645  EPtot      =        74.0954
 BOND   =         3.7850  ANGLE   =         3.5631  DIHED      =         3.2595
 1-4 NB =         1.4467  1-4 EEL =         4.3093  VDWAALS    =        70.7583
 EELEC  =       119.7418  EHBOND  =         0.0000  RESTRAINT  =         0.0000
 EKCMT  =         0.0000  VIRIAL  =         0.0000  VOLUME     =       353.2142
                                                    Density    =         0.0058
 DV/DL  =         7.6622
 ------------------------------------------------------------------------------

      DV/DL, AVERAGES OVER   50000 STEPS

 NSTEP =   500000   TIME(PS) =    1020.000  TEMP(K) =     3.97  PRESS =     0.0
 Etot   =         0.0000  EKtot   =         0.0000  EPtot      =       -31.3106
 BOND   =         0.0000  ANGLE   =         0.0000  DIHED      =         0.0000
 1-4 NB =         0.0000  1-4 EEL =         0.0000  VDWAALS    =        -0.3350
 EELEC  =         0.0000  EHBOND  =         0.0000  RESTRAINT  =         0.0000
 EKCMT  =         0.0000  VIRIAL  =         0.0000  VOLUME     =         0.0000
                                                    Density    =         0.0000
 DV/DL  =       -31.3106
 ------------------------------------------------------------------------------

      A V E R A G E S   O V E R  500000 S T E P S

 NSTEP =   500000   TIME(PS) =    1020.000  TEMP(K) =   298.48  PRESS =     0.0
 Etot   =    -15500.3243  EKtot   =      3522.8865  EPtot      =    -19023.2108
 BOND   =        22.9661  ANGLE   =        20.3034  DIHED      =        17.6051
 1-4 NB =        15.1198  1-4 EEL =      -640.0614  VDWAALS    =      2782.2140
 EELEC  =    -21241.3577  EHBOND  =         0.0000  RESTRAINT  =         0.0000
 EKCMT  =         0.0000  VIRIAL  =         0.0000  VOLUME     =     60105.3243
                                                    Density    =         0.9876
 DV/DL  =       -32.0222
 ------------------------------------------------------------------------------

      R M S  F L U C T U A T I O N S

 NSTEP =   500000   TIME(PS) =    1020.000  TEMP(K) =     4.90  PRESS =     0.0
 Etot   =       148.2541  EKtot   =        57.8874  EPtot      =       111.9010
 BOND   =         3.8641  ANGLE   =         3.6105  DIHED      =         3.5362
 1-4 NB =         1.4476  1-4 EEL =         4.3846  VDWAALS    =        79.6896
 EELEC  =       168.5002  EHBOND  =         0.0000  RESTRAINT  =         0.0000
 EKCMT  =         0.0000  VIRIAL  =         0.0000  VOLUME     =       390.6478
                                                    Density    =         0.0064
 DV/DL  =         7.6669
 ------------------------------------------------------------------------------

      A V E R A G E S   O V E R  500000 S T E P S

 NSTEP =   500000   TIME(PS) =    1020.000  TEMP(K) =   298.42  PRESS =     0.0
 Etot   =    -15494.7929  EKtot   =      3528.4179  EPtot      =    -19023.2108
 BOND   =        22.9661  ANGLE   =        20.3034  DIHED      =        17.6051
 1-4 NB =        15.1198  1-4 EEL =      -640.0614  VDWAALS    =      2782.2140
 EELEC  =    -21241.3577  EHBOND  =         0.0000  RESTRAINT  =         0.0000
 EKCMT  =         0.0000  VIRIAL  =         0.0000  VOLUME     =     60105.3243
                                                    Density    =         0.9889
 DV/DL  =       -32.0222
 ------------------------------------------------------------------------------

      R M S  F L U C T U A T I O N S

 NSTEP =   500000   TIME(PS) =    1020.000  TEMP(K) =     4.90  PRESS =     0.0
 Etot   =       148.3439  EKtot   =        57.9782  EPtot      =       111.9010
 BOND   =         3.8641  ANGLE   =         3.6105  DIHED      =         3.5362
 1-4 NB =         1.4476  1-4 EEL =         4.3846  VDWAALS    =        79.6896
 EELEC  =       168.5002  EHBOND  =         0.0000  RESTRAINT  =         0.0000
 EKCMT  =         0.0000  VIRIAL  =         0.0000  VOLUME     =       390.6478
                                                    Density    =         0.0064
 DV/DL  =         7.6669
 ------------------------------------------------------------------------------

      DV/DL, AVERAGES OVER  500000 STEPS

 NSTEP =   500000   TIME(PS) =    1020.000  TEMP(K) =     4.90  PRESS =     0.0
 Etot   =         0.0000  EKtot   =         0.0000  EPtot      =       -31.7036
 BOND   =         0.0000  ANGLE   =         0.0000  DIHED      =         0.0000
 1-4 NB =         0.0000  1-4 EEL =         0.0000  VDWAALS    =        -0.3356
 EELEC  =         0.0000  EHBOND  =         0.0000  RESTRAINT  =         0.0000
 EKCMT  =         0.0000  VIRIAL  =         0.0000  VOLUME     =         0.0000
                                                    Density    =         0.0000
 DV/DL  =       -31.7036
 ------------------------------------------------------------------------------
