-------------------------------------------------------
          Amber 16 PMEMD                              2016
          -------------------------------------------------------

  [-O]verwriting output

File Assignments:

 Here is the input file:

TI/FEP, NpT, vdW+bonded transformation
 &cntrl
 ! please adjust namelist parameters to your needs!

 ! parameters for general MD
 imin = 0, nstlim = 500000, irest = 1, ntx = 5, dt = 0.002,
 ntt = 3, temp0 = 298.0, gamma_ln = 2.0, ig = -1,
 ntb = 2,
 ntp = 1, barostat = 2, pres0 = 1.01325, taup = 2.0,
 ntwe = 100, ntwx = 10000, ntpr = 1000, ntwr = 50000, ntave = 50000,
 ioutfm = 1, iwrap = 1, ntxo = 2,

 ! parameters for alchemical free energy simulation
 ntc = 2, ntf = 1,
 noshakemask = ':1,2',

 icfe = 1, ifsc = 1, clambda = 0.6839, scalpha = 0.5, scbeta = 12.0,
 ifmbar = 1, mbar_lambda = 0.0 0.0479 0.1150 0.2063 0.3160 0.4373 0.5626 0.6839
 mbar_states = 12, bar_intervall = 1000,   ! ntpr = bar_intervall for alchemica

 timask1=':1', timask2=':2',
scmask1=':1@H34',
scmask2=':2@Cl18',
 crgmask = ':1@H34 | :2@Cl18',
 /
 &ewald
 /

Note: ig = -1. Setting random seed to   995748 based on wallclock time in
      microseconds.

--------------------------------------------------------------------------------
   1.  RESOURCE   USE:
--------------------------------------------------------------------------------

 getting box info from netcdf restart file
 NATOM  =    4115 NTYPES =      13 NBONH =    4066 MBONA  =      55
 NTHETH =      78 MTHETA =      84 NPHIH =     153 MPHIA  =     133
 NHPARM =       0 NPARM  =       0 NNB   =    5842 NRES   =    1345
 NBONA  =      55 NTHETA =      84 NPHIA =     133 NUMBND =      22
 NUMANG =      35 NPTRA  =      14 NATYP =      17 NPHB   =       1
 IFBOX  =       1 NMXRS  =      43 IFCAP =       0 NEXTRA =       0
 NCOPY  =       0

     BOX TYPE: RECTILINEAR

--------------------------------------------------------------------------------
   2.  CONTROL  DATA  FOR  THE  RUN
--------------------------------------------------------------------------------

L0

General flags:
     imin    =       0, nmropt  =       0

Nature and format of input:
     ntx     =       5, irest   =       1, ntrx    =       1

Nature and format of output:
     ntxo    =       2, ntpr    =    1000, ntrx    =       1, ntwr    =   50000
     iwrap   =       1, ntwx    =   10000, ntwv    =       0, ntwe    =     100
     ioutfm  =       1, ntwprt  =       0, idecomp =       0, rbornstat=      0

Potential function:
     ntf     =       1, ntb     =       2, igb     =       0, nsnb    =      25
     ipol    =       0, gbsa    =       0, iesp    =       0
     dielc   =   1.00000, cut     =   8.00000, intdiel =   1.00000

Frozen or restrained atoms:
     ibelly  =       0, ntr     =       0

Molecular dynamics:
     nstlim  =    500000, nscm    =      1000, nrespa  =         1
     t       =   0.00000, dt      =   0.00200, vlimit  =  -1.00000

Langevin dynamics temperature regulation:
     ig      =  995748
     temp0   = 298.00000, tempi   =   0.00000, gamma_ln=   2.00000

Pressure regulation:
     ntp     =       1
     pres0   =   1.01325, comp    =  44.60000, taup    =   2.00000
     Monte-Carlo Barostat:
     mcbarint  =     100

SHAKE:
     ntc     =       2, jfastw  =       0
     tol     =   0.00001

Free energy options:
     icfe    =       1, ifsc    =       1, klambda =       1
     clambda =  0.6839, scalpha =  0.5000, scbeta  = 12.0000
     sceeorder =       2
     dynlmb =  0.0000 logdvdl =       0

FEP MBAR options:
     ifmbar  =       1,  bar_intervall =     1000
     mbar_states =      12

Ewald parameters:
     verbose =       0, ew_type =       0, nbflag  =       1, use_pme =       1
     vdwmeth =       1, eedmeth =       1, netfrc  =       1
     Box X =   32.703   Box Y =   37.439   Box Z =   33.758
     Alpha =   90.000   Beta  =   90.000   Gamma =   90.000
     NFFT1 =   36       NFFT2 =   40       NFFT3 =   36
     Cutoff=    8.000   Tol   =0.100E-04
     Ewald Coefficient =  0.34864
     Interpolation order =    4
     TI Mask 1 :1; matches     43 atoms
     TI Mask 2 :2; matches     43 atoms
     TI region 1:    4072 atoms
     TI region 2:    4072 atoms
     SC Mask 1 :1@H34; matches      1 atoms
     SC Mask 2 :2@Cl18; matches      1 atoms
Removing charge of       0.1510 from atom      43
Removing charge of      -0.0609 from atom      86
Total charge of   0.09010100 removed from       2 atoms

    MBAR - lambda values considered:
      12 total:  0.0000 0.0479 0.1150 0.2063 0.3160 0.4373 0.5626 0.6839 0.7936 0.8849 0.9520 1.0000
    Extra energies will be computed    500 times.
 Noshake mask :1,2; matches      86 atoms.

--------------------------------------------------------------------------------
   3.  ATOMIC COORDINATES AND VELOCITIES
--------------------------------------------------------------------------------

L0
 begin time read from input coords =    20.000 ps

     Molecule     1 is partially softcore
     Molecule     2 is partially softcore
 Number of triangulated 3-point waters found:     1343
   Removing shake constraints from C22   L0    1 -- H41   L0    1
   Removing shake constraints from C22   L0    1 -- H42   L0    1
   Removing shake constraints from C21   L0    1 -- H39   L0    1
   Removing shake constraints from C21   L0    1 -- H40   L0    1
   Removing shake constraints from C20   L0    1 -- H38   L0    1
   Removing shake constraints from C19   L0    1 -- H37   L0    1
   Removing shake constraints from C18   L0    1 -- H36   L0    1
   Removing shake constraints from C15   L0    1 -- H35   L0    1
   Removing shake constraints from C14   L0    1 -- H34   L0    1
   Removing shake constraints from C13   L0    1 -- H33   L0    1
   Removing shake constraints from C10   L0    1 -- H32   L0    1
   Removing shake constraints from C9    L0    1 -- H31   L0    1
   Removing shake constraints from C8    L0    1 -- H30   L0    1
   Removing shake constraints from N5    L0    1 -- H29   L0    1
   Removing shake constraints from N4    L0    1 -- H43   L0    1
   Removing shake constraints from N4    L0    1 -- H28   L0    1
   Removing shake constraints from C1    L0    1 -- H25   L0    1
   Removing shake constraints from C1    L0    1 -- H26   L0    1
   Removing shake constraints from C1    L0    1 -- H27   L0    1
   Removing shake constraints from C23   L1    2 -- H41   L1    2
   Removing shake constraints from C23   L1    2 -- H42   L1    2
   Removing shake constraints from C22   L1    2 -- H39   L1    2
   Removing shake constraints from C22   L1    2 -- H40   L1    2
   Removing shake constraints from C21   L1    2 -- H38   L1    2
   Removing shake constraints from C20   L1    2 -- H37   L1    2
   Removing shake constraints from C13   L1    2 -- H34   L1    2
   Removing shake constraints from C16   L1    2 -- H35   L1    2
   Removing shake constraints from C19   L1    2 -- H36   L1    2
   Removing shake constraints from C10   L1    2 -- H33   L1    2
   Removing shake constraints from C9    L1    2 -- H32   L1    2
   Removing shake constraints from C8    L1    2 -- H31   L1    2
   Removing shake constraints from N5    L1    2 -- H30   L1    2
   Removing shake constraints from N4    L1    2 -- H43   L1    2
   Removing shake constraints from N4    L1    2 -- H29   L1    2
   Removing shake constraints from C1    L1    2 -- H26   L1    2
   Removing shake constraints from C1    L1    2 -- H27   L1    2
   Removing shake constraints from C1    L1    2 -- H28   L1    2
 WARNING: SHAKEn bond for atoms       14       43 is partially softcore.
 Coordinates for common atoms will be synchronized from V0.
 Consider using noshake mask or disabling SHAKE.

 Number of shake restraints removed in TI region  1 :       19
 Number of shake restraints removed in TI region  2 :       18

     Sum of charges for TI region  1 =   0.84897300
     Assuming uniform neutralizing plasma

     Sum of charges for TI region  2 =   1.06096699
     Assuming uniform neutralizing plasma

--------------------------------------------------------------------------------
   4.  RESULTS
 NSTEP =     1000   TIME(PS) =      22.000  TEMP(K) =   285.49  PRESS =     0.0
 Etot   =    -11059.1122  EKtot   =      2317.2419  EPtot      =    -13376.3541
 BOND   =        18.7377  ANGLE   =        34.5315  DIHED      =        15.7847
 1-4 NB =         7.3941  1-4 EEL =       -68.5386  VDWAALS    =      2133.5100
 EELEC  =    -15517.7735  EHBOND  =         0.0000  RESTRAINT  =         0.0000
 EKCMT  =         0.0000  VIRIAL  =         0.0000  VOLUME     =     41586.9849
                                                    Density    =         0.9797
 DV/DL  =        -1.0404
 ------------------------------------------------------------------------------

      A V E R A G E S   O V E R   50000 S T E P S

 NSTEP =    50000   TIME(PS) =     120.000  TEMP(K) =   297.43  PRESS =     0.0
 Etot   =    -10446.4400  EKtot   =      2414.1243  EPtot      =    -12860.5643
 BOND   =        17.8700  ANGLE   =        31.9725  DIHED      =        18.3614
 1-4 NB =         7.8902  1-4 EEL =       -69.0223  VDWAALS    =      1905.4765
 EELEC  =    -14773.1126  EHBOND  =         0.0000  RESTRAINT  =         0.0000
 EKCMT  =         0.0000  VIRIAL  =         0.0000  VOLUME     =     41385.7812
                                                    Density    =         0.9846
 DV/DL  =         1.3565
 ------------------------------------------------------------------------------

      R M S  F L U C T U A T I O N S

 NSTEP =    50000   TIME(PS) =     120.000  TEMP(K) =    10.75  PRESS =     0.0
 Etot   =       282.0412  EKtot   =        87.2930  EPtot      =       204.0907
 BOND   =         3.7395  ANGLE   =         3.2325  DIHED      =         2.6361
 1-4 NB =         0.8637  1-4 EEL =         1.8940  VDWAALS    =        99.1468
 EELEC  =       289.5724  EHBOND  =         0.0000  RESTRAINT  =         0.0000
 EKCMT  =         0.0000  VIRIAL  =         0.0000  VOLUME     =       330.2438
                                                    Density    =         0.0079
 DV/DL  =         2.8982
 ------------------------------------------------------------------------------

      A V E R A G E S   O V E R   50000 S T E P S

 NSTEP =    50000   TIME(PS) =     120.000  TEMP(K) =   297.42  PRESS =     0.0
 Etot   =    -10446.4612  EKtot   =      2414.1031  EPtot      =    -12860.5643
 BOND   =        17.8700  ANGLE   =        31.9725  DIHED      =        18.3614
 1-4 NB =         7.8902  1-4 EEL =       -69.0223  VDWAALS    =      1905.4765
 EELEC  =    -14773.1126  EHBOND  =         0.0000  RESTRAINT  =         0.0000
 EKCMT  =         0.0000  VIRIAL  =         0.0000  VOLUME     =     41385.7812
                                                    Density    =         0.9859
 DV/DL  =         1.3565
 ------------------------------------------------------------------------------

      R M S  F L U C T U A T I O N S

 NSTEP =    50000   TIME(PS) =     120.000  TEMP(K) =    10.75  PRESS =     0.0
 Etot   =       282.0095  EKtot   =        87.2655  EPtot      =       204.0907
 BOND   =         3.7395  ANGLE   =         3.2325  DIHED      =         2.6361
 1-4 NB =         0.8637  1-4 EEL =         1.8940  VDWAALS    =        99.1468
 EELEC  =       289.5724  EHBOND  =         0.0000  RESTRAINT  =         0.0000
 EKCMT  =         0.0000  VIRIAL  =         0.0000  VOLUME     =       330.2438
                                                    Density    =         0.0079
 DV/DL  =         2.8982
 ------------------------------------------------------------------------------

      DV/DL, AVERAGES OVER   50000 STEPS

 NSTEP =    50000   TIME(PS) =     120.000  TEMP(K) =    10.75  PRESS =     0.0
 Etot   =         0.0000  EKtot   =         0.0000  EPtot      =         1.3435
 BOND   =         0.0000  ANGLE   =         0.0000  DIHED      =         0.0000
 1-4 NB =         0.0000  1-4 EEL =         0.0000  VDWAALS    =        -0.2536
 EELEC  =        -0.2354  EHBOND  =         0.0000  RESTRAINT  =         0.0000
 EKCMT  =         0.0000  VIRIAL  =         0.0000  VOLUME     =         0.0000
                                                    Density    =         0.0000
 DV/DL  =         1.3435
 ------------------------------------------------------------------------------

      A V E R A G E S   O V E R   50000 S T E P S

 NSTEP =   100000   TIME(PS) =     220.000  TEMP(K) =   298.40  PRESS =     0.0
 Etot   =    -10419.9244  EKtot   =      2422.0074  EPtot      =    -12841.9318
 BOND   =        17.6028  ANGLE   =        31.9322  DIHED      =        18.4090
 1-4 NB =         7.8252  1-4 EEL =       -70.4332  VDWAALS    =      1897.8240
 EELEC  =    -14745.0918  EHBOND  =         0.0000  RESTRAINT  =         0.0000
 EKCMT  =         0.0000  VIRIAL  =         0.0000  VOLUME     =     41321.0896
                                                    Density    =         0.9861
 DV/DL  =         1.2556
 ------------------------------------------------------------------------------

      R M S  F L U C T U A T I O N S

 NSTEP =   100000   TIME(PS) =     220.000  TEMP(K) =     4.86  PRESS =     0.0
 Etot   =        78.6788  EKtot   =        39.4746  EPtot      =        63.6173
 BOND   =         3.5555  ANGLE   =         3.1807  DIHED      =         2.9017
 1-4 NB =         0.8615  1-4 EEL =         2.5402  VDWAALS    =        57.5637
 EELEC  =        97.1019  EHBOND  =         0.0000  RESTRAINT  =         0.0000
 EKCMT  =         0.0000  VIRIAL  =         0.0000  VOLUME     =       354.7611
                                                    Density    =         0.0085
 DV/DL  =         2.8172
 ------------------------------------------------------------------------------

      A V E R A G E S   O V E R   50000 S T E P S

 NSTEP =   100000   TIME(PS) =     220.000  TEMP(K) =   298.40  PRESS =     0.0
 Etot   =    -10419.9180  EKtot   =      2422.0138  EPtot      =    -12841.9318
 BOND   =        17.6028  ANGLE   =        31.9322  DIHED      =        18.4090
 1-4 NB =         7.8252  1-4 EEL =       -70.4332  VDWAALS    =      1897.8240
 EELEC  =    -14745.0918  EHBOND  =         0.0000  RESTRAINT  =         0.0000
 EKCMT  =         0.0000  VIRIAL  =         0.0000  VOLUME     =     41321.0896
                                                    Density    =         0.9875
 DV/DL  =         1.2556
 ------------------------------------------------------------------------------

      R M S  F L U C T U A T I O N S

 NSTEP =   100000   TIME(PS) =     220.000  TEMP(K) =     4.86  PRESS =     0.0
 Etot   =        78.6929  EKtot   =        39.4705  EPtot      =        63.6173
 BOND   =         3.5555  ANGLE   =         3.1807  DIHED      =         2.9017
 1-4 NB =         0.8615  1-4 EEL =         2.5402  VDWAALS    =        57.5637
 EELEC  =        97.1019  EHBOND  =         0.0000  RESTRAINT  =         0.0000
 EKCMT  =         0.0000  VIRIAL  =         0.0000  VOLUME     =       354.7611
                                                    Density    =         0.0085
 DV/DL  =         2.8172
 ------------------------------------------------------------------------------

      DV/DL, AVERAGES OVER   50000 STEPS

 NSTEP =   100000   TIME(PS) =     220.000  TEMP(K) =     4.86  PRESS =     0.0
 Etot   =         0.0000  EKtot   =         0.0000  EPtot      =         1.2435
 BOND   =         0.0000  ANGLE   =         0.0000  DIHED      =         0.0000
 1-4 NB =         0.0000  1-4 EEL =         0.0000  VDWAALS    =        -0.2540
 EELEC  =        -0.2355  EHBOND  =         0.0000  RESTRAINT  =         0.0000
 EKCMT  =         0.0000  VIRIAL  =         0.0000  VOLUME     =         0.0000
                                                    Density    =         0.0000
 DV/DL  =         1.2435
 ------------------------------------------------------------------------------

      A V E R A G E S   O V E R   50000 S T E P S

 NSTEP =   500000   TIME(PS) =    1020.000  TEMP(K) =   298.93  PRESS =     0.0
 Etot   =    -10409.5226  EKtot   =      2426.3218  EPtot      =    -12835.8444
 BOND   =        17.7894  ANGLE   =        32.3967  DIHED      =        18.7403
 1-4 NB =         7.7757  1-4 EEL =       -72.4254  VDWAALS    =      1897.2334
 EELEC  =    -14737.3546  EHBOND  =         0.0000  RESTRAINT  =         0.0000
 EKCMT  =         0.0000  VIRIAL  =         0.0000  VOLUME     =     41248.3569
                                                    Density    =         0.9878
 DV/DL  =         1.3045
 ------------------------------------------------------------------------------

      R M S  F L U C T U A T I O N S

 NSTEP =   500000   TIME(PS) =    1020.000  TEMP(K) =     4.70  PRESS =     0.0
 Etot   =        66.4441  EKtot   =        38.1844  EPtot      =        53.7592
 BOND   =         3.7934  ANGLE   =         3.2826  DIHED      =         2.6971
 1-4 NB =         0.8533  1-4 EEL =         1.6294  VDWAALS    =        55.1511
 EELEC  =        86.7489  EHBOND  =         0.0000  RESTRAINT  =         0.0000
 EKCMT  =         0.0000  VIRIAL  =         0.0000  VOLUME     =       331.9561
                                                    Density    =         0.0080
 DV/DL  =         2.8957
 ------------------------------------------------------------------------------

      A V E R A G E S   O V E R   50000 S T E P S

 NSTEP =   500000   TIME(PS) =    1020.000  TEMP(K) =   298.93  PRESS =     0.0
 Etot   =    -10409.4920  EKtot   =      2426.3524  EPtot      =    -12835.8444
 BOND   =        17.7894  ANGLE   =        32.3967  DIHED      =        18.7403
 1-4 NB =         7.7757  1-4 EEL =       -72.4254  VDWAALS    =      1897.2334
 EELEC  =    -14737.3546  EHBOND  =         0.0000  RESTRAINT  =         0.0000
 EKCMT  =         0.0000  VIRIAL  =         0.0000  VOLUME     =     41248.3569
                                                    Density    =         0.9892
 DV/DL  =         1.3045
 ------------------------------------------------------------------------------

      R M S  F L U C T U A T I O N S

 NSTEP =   500000   TIME(PS) =    1020.000  TEMP(K) =     4.70  PRESS =     0.0
 Etot   =        66.4475  EKtot   =        38.1875  EPtot      =        53.7592
 BOND   =         3.7934  ANGLE   =         3.2826  DIHED      =         2.6971
 1-4 NB =         0.8533  1-4 EEL =         1.6294  VDWAALS    =        55.1511
 EELEC  =        86.7489  EHBOND  =         0.0000  RESTRAINT  =         0.0000
 EKCMT  =         0.0000  VIRIAL  =         0.0000  VOLUME     =       331.9561
                                                    Density    =         0.0080
 DV/DL  =         2.8957
 ------------------------------------------------------------------------------

      DV/DL, AVERAGES OVER   50000 STEPS

 NSTEP =   500000   TIME(PS) =    1020.000  TEMP(K) =     4.70  PRESS =     0.0
 Etot   =         0.0000  EKtot   =         0.0000  EPtot      =         1.2932
 BOND   =         0.0000  ANGLE   =         0.0000  DIHED      =         0.0000
 1-4 NB =         0.0000  1-4 EEL =         0.0000  VDWAALS    =        -0.2544
 EELEC  =        -0.2356  EHBOND  =         0.0000  RESTRAINT  =         0.0000
 EKCMT  =         0.0000  VIRIAL  =         0.0000  VOLUME     =         0.0000
                                                    Density    =         0.0000
 DV/DL  =         1.2932
 ------------------------------------------------------------------------------

      A V E R A G E S   O V E R  500000 S T E P S

 NSTEP =   500000   TIME(PS) =    1020.000  TEMP(K) =   298.61  PRESS =     0.0
 Etot   =    -10418.6955  EKtot   =      2423.7061  EPtot      =    -12842.4016
 BOND   =        17.8753  ANGLE   =        32.1880  DIHED      =        18.4408
 1-4 NB =         7.8655  1-4 EEL =       -71.3418  VDWAALS    =      1899.1972
 EELEC  =    -14746.6268  EHBOND  =         0.0000  RESTRAINT  =         0.0000
 EKCMT  =         0.0000  VIRIAL  =         0.0000  VOLUME     =     41256.7971
                                                    Density    =         0.9876
 DV/DL  =         1.3862
 ------------------------------------------------------------------------------

      R M S  F L U C T U A T I O N S

 NSTEP =   500000   TIME(PS) =    1020.000  TEMP(K) =     5.63  PRESS =     0.0
 Etot   =       111.3961  EKtot   =        45.6671  EPtot      =        84.7343
 BOND   =         3.7497  ANGLE   =         3.2253  DIHED      =         2.6978
 1-4 NB =         0.8683  1-4 EEL =         2.6621  VDWAALS    =        62.1272
 EELEC  =       126.5252  EHBOND  =         0.0000  RESTRAINT  =         0.0000
 EKCMT  =         0.0000  VIRIAL  =         0.0000  VOLUME     =       323.3582
                                                    Density    =         0.0077
 DV/DL  =         2.9838
 ------------------------------------------------------------------------------

      A V E R A G E S   O V E R  500000 S T E P S

 NSTEP =   500000   TIME(PS) =    1020.000  TEMP(K) =   298.61  PRESS =     0.0
 Etot   =    -10418.6964  EKtot   =      2423.7052  EPtot      =    -12842.4016
 BOND   =        17.8753  ANGLE   =        32.1880  DIHED      =        18.4408
 1-4 NB =         7.8655  1-4 EEL =       -71.3418  VDWAALS    =      1899.1972
 EELEC  =    -14746.6268  EHBOND  =         0.0000  RESTRAINT  =         0.0000
 EKCMT  =         0.0000  VIRIAL  =         0.0000  VOLUME     =     41256.7971
                                                    Density    =         0.9890
 DV/DL  =         1.3862
 ------------------------------------------------------------------------------

      R M S  F L U C T U A T I O N S

 NSTEP =   500000   TIME(PS) =    1020.000  TEMP(K) =     5.63  PRESS =     0.0
 Etot   =       111.3937  EKtot   =        45.6600  EPtot      =        84.7343
 BOND   =         3.7497  ANGLE   =         3.2253  DIHED      =         2.6978
 1-4 NB =         0.8683  1-4 EEL =         2.6621  VDWAALS    =        62.1272
 EELEC  =       126.5252  EHBOND  =         0.0000  RESTRAINT  =         0.0000
 EKCMT  =         0.0000  VIRIAL  =         0.0000  VOLUME     =       323.3582
                                                    Density    =         0.0077
 DV/DL  =         2.9838
 ------------------------------------------------------------------------------

      DV/DL, AVERAGES OVER  500000 STEPS

 NSTEP =   500000   TIME(PS) =    1020.000  TEMP(K) =     5.63  PRESS =     0.0
 Etot   =         0.0000  EKtot   =         0.0000  EPtot      =         1.3726
 BOND   =         0.0000  ANGLE   =         0.0000  DIHED      =         0.0000
 1-4 NB =         0.0000  1-4 EEL =         0.0000  VDWAALS    =        -0.2544
 EELEC  =        -0.2356  EHBOND  =         0.0000  RESTRAINT  =         0.0000
 EKCMT  =         0.0000  VIRIAL  =         0.0000  VOLUME     =         0.0000
                                                    Density    =         0.0000
 DV/DL  =         1.3726
 ------------------------------------------------------------------------------
