-------------------------------------------------------
          Amber 16 PMEMD                              2016
          -------------------------------------------------------

  [-O]verwriting output

File Assignments:

 Here is the input file:

TI/FEP, NpT, vdW+bonded transformation
 &cntrl
 ! please adjust namelist parameters to your needs!

 ! parameters for general MD
 imin = 0, nstlim = 500000, irest = 1, ntx = 5, dt = 0.002,
 ntt = 3, temp0 = 298.0, gamma_ln = 2.0, ig = -1,
 ntb = 2,
 ntp = 1, barostat = 2, pres0 = 1.01325, taup = 2.0,
 ntwe = 100, ntwx = 10000, ntpr = 1000, ntwr = 50000, ntave = 50000,
 ioutfm = 1, iwrap = 1, ntxo = 2,

 ! parameters for alchemical free energy simulation
 ntc = 2, ntf = 1,
 noshakemask = ':1,2',

 icfe = 1, ifsc = 1, clambda = 0.3160, scalpha = 0.5, scbeta = 12.0,
 ifmbar = 1, mbar_lambda = 0.0 0.0479 0.1150 0.2063 0.3160 0.4373 0.5626 0.6839
 mbar_states = 12, bar_intervall = 1000,   ! ntpr = bar_intervall for alchemica

 timask1=':1', timask2=':2',
scmask1=':1@H34',
scmask2=':2@Cl18',
 crgmask = ':1@H34 | :2@Cl18',
 /
 &ewald
 /

Note: ig = -1. Setting random seed to   290677 based on wallclock time in
      microseconds.

--------------------------------------------------------------------------------
   1.  RESOURCE   USE:
--------------------------------------------------------------------------------

 getting box info from netcdf restart file
 NATOM  =   46594 NTYPES =      28 NBONH =   43475 MBONA  =    3194
 NTHETH =    6827 MTHETA =    4353 NPHIH =   13979 MPHIA  =   13703
 NHPARM =       0 NPARM  =       0 NNB   =   87745 NRES   =   13889
 NBONA  =    3194 NTHETA =    4353 NPHIA =   13703 NUMBND =      89
 NUMANG =     195 NPTRA  =     203 NATYP =      50 NPHB   =       1
 IFBOX  =       1 NMXRS  =      43 IFCAP =       0 NEXTRA =       0
 NCOPY  =       0

     BOX TYPE: RECTILINEAR

--------------------------------------------------------------------------------
   2.  CONTROL  DATA  FOR  THE  RUN
--------------------------------------------------------------------------------

L0

General flags:
     imin    =       0, nmropt  =       0

Nature and format of input:
     ntx     =       5, irest   =       1, ntrx    =       1

Nature and format of output:
     ntxo    =       2, ntpr    =    1000, ntrx    =       1, ntwr    =   50000
     iwrap   =       1, ntwx    =   10000, ntwv    =       0, ntwe    =     100
     ioutfm  =       1, ntwprt  =       0, idecomp =       0, rbornstat=      0

Potential function:
     ntf     =       1, ntb     =       2, igb     =       0, nsnb    =      25
     ipol    =       0, gbsa    =       0, iesp    =       0
     dielc   =   1.00000, cut     =   8.00000, intdiel =   1.00000

Frozen or restrained atoms:
     ibelly  =       0, ntr     =       0

Molecular dynamics:
     nstlim  =    500000, nscm    =      1000, nrespa  =         1
     t       =   0.00000, dt      =   0.00200, vlimit  =  -1.00000

Langevin dynamics temperature regulation:
     ig      =  290677
     temp0   = 298.00000, tempi   =   0.00000, gamma_ln=   2.00000

Pressure regulation:
     ntp     =       1
     pres0   =   1.01325, comp    =  44.60000, taup    =   2.00000
     Monte-Carlo Barostat:
     mcbarint  =     100

SHAKE:
     ntc     =       2, jfastw  =       0
     tol     =   0.00001

Free energy options:
     icfe    =       1, ifsc    =       1, klambda =       1
     clambda =  0.3160, scalpha =  0.5000, scbeta  = 12.0000
     sceeorder =       2
     dynlmb =  0.0000 logdvdl =       0

FEP MBAR options:
     ifmbar  =       1,  bar_intervall =     1000
     mbar_states =      12

Ewald parameters:
     verbose =       0, ew_type =       0, nbflag  =       1, use_pme =       1
     vdwmeth =       1, eedmeth =       1, netfrc  =       1
     Box X =   87.894   Box Y =   67.207   Box Z =   78.608
     Alpha =   90.000   Beta  =   90.000   Gamma =   90.000
     NFFT1 =   96       NFFT2 =   64       NFFT3 =   80
     Cutoff=    8.000   Tol   =0.100E-04
     Ewald Coefficient =  0.34864
     Interpolation order =    4
     TI Mask 1 :1; matches     43 atoms
     TI Mask 2 :2; matches     43 atoms
     TI region 1:   46551 atoms
     TI region 2:   46551 atoms
     SC Mask 1 :1@H34; matches      1 atoms
     SC Mask 2 :2@Cl18; matches      1 atoms
Removing charge of       0.1510 from atom      43
Removing charge of      -0.0609 from atom      86
Total charge of   0.09010100 removed from       2 atoms

    MBAR - lambda values considered:
      12 total:  0.0000 0.0479 0.1150 0.2063 0.3160 0.4373 0.5626 0.6839 0.7936 0.8849 0.9520 1.0000
    Extra energies will be computed    500 times.
 Noshake mask :1,2; matches      86 atoms.

--------------------------------------------------------------------------------
   3.  ATOMIC COORDINATES AND VELOCITIES
--------------------------------------------------------------------------------

L0
 begin time read from input coords =    20.000 ps

     Molecule     1 is partially softcore
     Molecule     2 is partially softcore
 Number of triangulated 3-point waters found:    13488
   Removing shake constraints from C22   L0    1 -- H41   L0    1
   Removing shake constraints from C22   L0    1 -- H42   L0    1
   Removing shake constraints from C21   L0    1 -- H39   L0    1
   Removing shake constraints from C21   L0    1 -- H40   L0    1
   Removing shake constraints from C20   L0    1 -- H38   L0    1
   Removing shake constraints from C19   L0    1 -- H37   L0    1
   Removing shake constraints from C18   L0    1 -- H36   L0    1
   Removing shake constraints from C15   L0    1 -- H35   L0    1
   Removing shake constraints from C14   L0    1 -- H34   L0    1
   Removing shake constraints from C13   L0    1 -- H33   L0    1
   Removing shake constraints from C10   L0    1 -- H32   L0    1
   Removing shake constraints from C9    L0    1 -- H31   L0    1
   Removing shake constraints from C8    L0    1 -- H30   L0    1
   Removing shake constraints from N5    L0    1 -- H29   L0    1
   Removing shake constraints from N4    L0    1 -- H43   L0    1
   Removing shake constraints from N4    L0    1 -- H28   L0    1
   Removing shake constraints from C1    L0    1 -- H25   L0    1
   Removing shake constraints from C1    L0    1 -- H26   L0    1
   Removing shake constraints from C1    L0    1 -- H27   L0    1
   Removing shake constraints from C23   L1    2 -- H41   L1    2
   Removing shake constraints from C23   L1    2 -- H42   L1    2
   Removing shake constraints from C22   L1    2 -- H39   L1    2
   Removing shake constraints from C22   L1    2 -- H40   L1    2
   Removing shake constraints from C21   L1    2 -- H38   L1    2
   Removing shake constraints from C20   L1    2 -- H37   L1    2
   Removing shake constraints from C13   L1    2 -- H34   L1    2
   Removing shake constraints from C16   L1    2 -- H35   L1    2
   Removing shake constraints from C19   L1    2 -- H36   L1    2
   Removing shake constraints from C10   L1    2 -- H33   L1    2
   Removing shake constraints from C9    L1    2 -- H32   L1    2
   Removing shake constraints from C8    L1    2 -- H31   L1    2
   Removing shake constraints from N5    L1    2 -- H30   L1    2
   Removing shake constraints from N4    L1    2 -- H43   L1    2
   Removing shake constraints from N4    L1    2 -- H29   L1    2
   Removing shake constraints from C1    L1    2 -- H26   L1    2
   Removing shake constraints from C1    L1    2 -- H27   L1    2
   Removing shake constraints from C1    L1    2 -- H28   L1    2
 WARNING: SHAKEn bond for atoms       14       43 is partially softcore.
 Coordinates for common atoms will be synchronized from V0.
 Consider using noshake mask or disabling SHAKE.

 Number of shake restraints removed in TI region  1 :       19
 Number of shake restraints removed in TI region  2 :       18

     Sum of charges for TI region  1 =  -0.15102723
     Assuming uniform neutralizing plasma

     Sum of charges for TI region  2 =   0.06096676
     Assuming uniform neutralizing plasma

--------------------------------------------------------------------------------
   4.  RESULTS
 NSTEP =     1000   TIME(PS) =      22.000  TEMP(K) =   284.79  PRESS =     0.0
 Etot   =   -116822.9190  EKtot   =     27220.9004  EPtot      =   -144043.8193
 BOND   =      1187.3866  ANGLE   =      3015.4858  DIHED      =      4865.1633
 1-4 NB =      1387.8371  1-4 EEL =     15934.8939  VDWAALS    =     17708.9815
 EELEC  =   -188143.5676  EHBOND  =         0.0000  RESTRAINT  =         0.0000
 EKCMT  =         0.0000  VIRIAL  =         0.0000  VOLUME     =    466514.3266
                                                    Density    =         1.0213
 DV/DL  =         9.0325
 ------------------------------------------------------------------------------

      A V E R A G E S   O V E R   50000 S T E P S

 NSTEP =    50000   TIME(PS) =     120.000  TEMP(K) =   296.71  PRESS =     0.0
 Etot   =   -111619.9005  EKtot   =     28359.9427  EPtot      =   -139979.8432
 BOND   =      1187.9751  ANGLE   =      3063.8871  DIHED      =      4888.5174
 1-4 NB =      1409.3157  1-4 EEL =     15992.3538  VDWAALS    =     15722.2949
 EELEC  =   -182244.1872  EHBOND  =         0.0000  RESTRAINT  =         0.0000
 EKCMT  =         0.0000  VIRIAL  =         0.0000  VOLUME     =    462788.5448
                                                    Density    =         1.0295
 DV/DL  =         2.8467
 ------------------------------------------------------------------------------

      R M S  F L U C T U A T I O N S

 NSTEP =    50000   TIME(PS) =     120.000  TEMP(K) =    10.40  PRESS =     0.0
 Etot   =      3107.5420  EKtot   =       994.3205  EPtot      =      2133.1073
 BOND   =        49.1415  ANGLE   =       100.2705  DIHED      =        33.8378
 1-4 NB =        16.2074  1-4 EEL =        43.4298  VDWAALS    =       877.2267
 EELEC  =      2843.6741  EHBOND  =         0.0000  RESTRAINT  =         0.0000
 EKCMT  =         0.0000  VIRIAL  =         0.0000  VOLUME     =      1227.5634
                                                    Density    =         0.0027
 DV/DL  =         2.8876
 ------------------------------------------------------------------------------

      A V E R A G E S   O V E R   50000 S T E P S

 NSTEP =    50000   TIME(PS) =     120.000  TEMP(K) =   296.71  PRESS =     0.0
 Etot   =   -111619.7985  EKtot   =     28360.0447  EPtot      =   -139979.8432
 BOND   =      1187.9751  ANGLE   =      3063.8871  DIHED      =      4888.5174
 1-4 NB =      1409.3157  1-4 EEL =     15992.3538  VDWAALS    =     15722.2949
 EELEC  =   -182244.1872  EHBOND  =         0.0000  RESTRAINT  =         0.0000
 EKCMT  =         0.0000  VIRIAL  =         0.0000  VOLUME     =    462788.5448
                                                    Density    =         1.0296
 DV/DL  =         2.8467
 ------------------------------------------------------------------------------

      R M S  F L U C T U A T I O N S

 NSTEP =    50000   TIME(PS) =     120.000  TEMP(K) =    10.40  PRESS =     0.0
 Etot   =      3107.5599  EKtot   =       994.3381  EPtot      =      2133.1073
 BOND   =        49.1415  ANGLE   =       100.2705  DIHED      =        33.8378
 1-4 NB =        16.2074  1-4 EEL =        43.4298  VDWAALS    =       877.2267
 EELEC  =      2843.6741  EHBOND  =         0.0000  RESTRAINT  =         0.0000
 EKCMT  =         0.0000  VIRIAL  =         0.0000  VOLUME     =      1227.5634
                                                    Density    =         0.0027
 DV/DL  =         2.8876
 ------------------------------------------------------------------------------

      DV/DL, AVERAGES OVER   50000 STEPS

 NSTEP =    50000   TIME(PS) =     120.000  TEMP(K) =    10.40  PRESS =     0.0
 Etot   =         0.0000  EKtot   =         0.0000  EPtot      =         2.8182
 BOND   =         0.0000  ANGLE   =         0.0000  DIHED      =         0.0000
 1-4 NB =         0.0000  1-4 EEL =         0.0000  VDWAALS    =        -0.2835
 EELEC  =        -0.1933  EHBOND  =         0.0000  RESTRAINT  =         0.0000
 EKCMT  =         0.0000  VIRIAL  =         0.0000  VOLUME     =         0.0000
                                                    Density    =         0.0000
 DV/DL  =         2.8182
 ------------------------------------------------------------------------------

      A V E R A G E S   O V E R   50000 S T E P S

 NSTEP =   100000   TIME(PS) =     220.000  TEMP(K) =   298.09  PRESS =     0.0
 Etot   =   -111200.6559  EKtot   =     28491.6031  EPtot      =   -139692.2589
 BOND   =      1190.6351  ANGLE   =      3075.4925  DIHED      =      4887.6522
 1-4 NB =      1409.6008  1-4 EEL =     15972.9861  VDWAALS    =     15614.5408
 EELEC  =   -181843.1664  EHBOND  =         0.0000  RESTRAINT  =         0.0000
 EKCMT  =         0.0000  VIRIAL  =         0.0000  VOLUME     =    462594.2651
                                                    Density    =         1.0300
 DV/DL  =         3.1032
 ------------------------------------------------------------------------------

      R M S  F L U C T U A T I O N S

 NSTEP =   100000   TIME(PS) =     220.000  TEMP(K) =     1.35  PRESS =     0.0
 Etot   =       215.4064  EKtot   =       128.7030  EPtot      =       179.8310
 BOND   =        29.0472  ANGLE   =        42.8769  DIHED      =        24.9366
 1-4 NB =        15.1512  1-4 EEL =        41.6111  VDWAALS    =       181.8384
 EELEC  =       275.8242  EHBOND  =         0.0000  RESTRAINT  =         0.0000
 EKCMT  =         0.0000  VIRIAL  =         0.0000  VOLUME     =      1121.4395
                                                    Density    =         0.0025
 DV/DL  =         2.7747
 ------------------------------------------------------------------------------

      A V E R A G E S   O V E R   50000 S T E P S

 NSTEP =   100000   TIME(PS) =     220.000  TEMP(K) =   298.09  PRESS =     0.0
 Etot   =   -111200.6786  EKtot   =     28491.5803  EPtot      =   -139692.2589
 BOND   =      1190.6351  ANGLE   =      3075.4925  DIHED      =      4887.6522
 1-4 NB =      1409.6008  1-4 EEL =     15972.9861  VDWAALS    =     15614.5408
 EELEC  =   -181843.1664  EHBOND  =         0.0000  RESTRAINT  =         0.0000
 EKCMT  =         0.0000  VIRIAL  =         0.0000  VOLUME     =    462594.2651
                                                    Density    =         1.0301
 DV/DL  =         3.1032
 ------------------------------------------------------------------------------

      R M S  F L U C T U A T I O N S

 NSTEP =   100000   TIME(PS) =     220.000  TEMP(K) =     1.35  PRESS =     0.0
 Etot   =       215.3607  EKtot   =       128.6896  EPtot      =       179.8310
 BOND   =        29.0472  ANGLE   =        42.8769  DIHED      =        24.9366
 1-4 NB =        15.1512  1-4 EEL =        41.6111  VDWAALS    =       181.8384
 EELEC  =       275.8242  EHBOND  =         0.0000  RESTRAINT  =         0.0000
 EKCMT  =         0.0000  VIRIAL  =         0.0000  VOLUME     =      1121.4395
                                                    Density    =         0.0025
 DV/DL  =         2.7747
 ------------------------------------------------------------------------------

      DV/DL, AVERAGES OVER   50000 STEPS

 NSTEP =   100000   TIME(PS) =     220.000  TEMP(K) =     1.35  PRESS =     0.0
 Etot   =         0.0000  EKtot   =         0.0000  EPtot      =         3.0717
 BOND   =         0.0000  ANGLE   =         0.0000  DIHED      =         0.0000
 1-4 NB =         0.0000  1-4 EEL =         0.0000  VDWAALS    =        -0.2837
 EELEC  =        -0.1933  EHBOND  =         0.0000  RESTRAINT  =         0.0000
 EKCMT  =         0.0000  VIRIAL  =         0.0000  VOLUME     =         0.0000
                                                    Density    =         0.0000
 DV/DL  =         3.0717
 ------------------------------------------------------------------------------

      A V E R A G E S   O V E R   50000 S T E P S

 NSTEP =   500000   TIME(PS) =    1020.000  TEMP(K) =   298.04  PRESS =     0.0
 Etot   =   -111207.6120  EKtot   =     28486.9519  EPtot      =   -139694.5639
 BOND   =      1188.5689  ANGLE   =      3067.1866  DIHED      =      4896.4045
 1-4 NB =      1411.0658  1-4 EEL =     16017.6039  VDWAALS    =     15604.1673
 EELEC  =   -181879.5610  EHBOND  =         0.0000  RESTRAINT  =         0.0000
 EKCMT  =         0.0000  VIRIAL  =         0.0000  VOLUME     =    462618.0137
                                                    Density    =         1.0299
 DV/DL  =         2.8869
 ------------------------------------------------------------------------------

      R M S  F L U C T U A T I O N S

 NSTEP =   500000   TIME(PS) =    1020.000  TEMP(K) =     1.33  PRESS =     0.0
 Etot   =       207.7746  EKtot   =       127.2127  EPtot      =       174.8797
 BOND   =        29.1975  ANGLE   =        42.9063  DIHED      =        23.5115
 1-4 NB =        15.3776  1-4 EEL =        43.3298  VDWAALS    =       184.0387
 EELEC  =       284.1172  EHBOND  =         0.0000  RESTRAINT  =         0.0000
 EKCMT  =         0.0000  VIRIAL  =         0.0000  VOLUME     =       954.4303
                                                    Density    =         0.0021
 DV/DL  =         3.0152
 ------------------------------------------------------------------------------

      A V E R A G E S   O V E R   50000 S T E P S

 NSTEP =   500000   TIME(PS) =    1020.000  TEMP(K) =   298.04  PRESS =     0.0
 Etot   =   -111207.5633  EKtot   =     28487.0006  EPtot      =   -139694.5639
 BOND   =      1188.5689  ANGLE   =      3067.1866  DIHED      =      4896.4045
 1-4 NB =      1411.0658  1-4 EEL =     16017.6039  VDWAALS    =     15604.1673
 EELEC  =   -181879.5610  EHBOND  =         0.0000  RESTRAINT  =         0.0000
 EKCMT  =         0.0000  VIRIAL  =         0.0000  VOLUME     =    462618.0137
                                                    Density    =         1.0300
 DV/DL  =         2.8869
 ------------------------------------------------------------------------------

      R M S  F L U C T U A T I O N S

 NSTEP =   500000   TIME(PS) =    1020.000  TEMP(K) =     1.33  PRESS =     0.0
 Etot   =       207.7280  EKtot   =       127.2005  EPtot      =       174.8797
 BOND   =        29.1975  ANGLE   =        42.9063  DIHED      =        23.5115
 1-4 NB =        15.3776  1-4 EEL =        43.3298  VDWAALS    =       184.0387
 EELEC  =       284.1172  EHBOND  =         0.0000  RESTRAINT  =         0.0000
 EKCMT  =         0.0000  VIRIAL  =         0.0000  VOLUME     =       954.4303
                                                    Density    =         0.0021
 DV/DL  =         3.0152
 ------------------------------------------------------------------------------

      DV/DL, AVERAGES OVER   50000 STEPS

 NSTEP =   500000   TIME(PS) =    1020.000  TEMP(K) =     1.33  PRESS =     0.0
 Etot   =         0.0000  EKtot   =         0.0000  EPtot      =         2.8583
 BOND   =         0.0000  ANGLE   =         0.0000  DIHED      =         0.0000
 1-4 NB =         0.0000  1-4 EEL =         0.0000  VDWAALS    =        -0.2836
 EELEC  =        -0.1933  EHBOND  =         0.0000  RESTRAINT  =         0.0000
 EKCMT  =         0.0000  VIRIAL  =         0.0000  VOLUME     =         0.0000
                                                    Density    =         0.0000
 DV/DL  =         2.8583
 ------------------------------------------------------------------------------

      A V E R A G E S   O V E R  500000 S T E P S

 NSTEP =   500000   TIME(PS) =    1020.000  TEMP(K) =   297.92  PRESS =     0.0
 Etot   =   -111258.2850  EKtot   =     28475.3965  EPtot      =   -139733.6815
 BOND   =      1188.9626  ANGLE   =      3065.2260  DIHED      =      4898.8560
 1-4 NB =      1411.5463  1-4 EEL =     16008.6784  VDWAALS    =     15623.2479
 EELEC  =   -181930.1988  EHBOND  =         0.0000  RESTRAINT  =         0.0000
 EKCMT  =         0.0000  VIRIAL  =         0.0000  VOLUME     =    462604.7823
                                                    Density    =         1.0299
 DV/DL  =         2.6365
 ------------------------------------------------------------------------------

      R M S  F L U C T U A T I O N S

 NSTEP =   500000   TIME(PS) =    1020.000  TEMP(K) =     3.55  PRESS =     0.0
 Etot   =      1010.1274  EKtot   =       339.6107  EPtot      =       699.3095
 BOND   =        31.6155  ANGLE   =        51.5105  DIHED      =        26.3956
 1-4 NB =        15.4269  1-4 EEL =        46.4543  VDWAALS    =       330.4417
 EELEC  =       943.7042  EHBOND  =         0.0000  RESTRAINT  =         0.0000
 EKCMT  =         0.0000  VIRIAL  =         0.0000  VOLUME     =       917.9648
                                                    Density    =         0.0020
 DV/DL  =         2.9794
 ------------------------------------------------------------------------------

      A V E R A G E S   O V E R  500000 S T E P S

 NSTEP =   500000   TIME(PS) =    1020.000  TEMP(K) =   297.92  PRESS =     0.0
 Etot   =   -111258.2565  EKtot   =     28475.4250  EPtot      =   -139733.6815
 BOND   =      1188.9626  ANGLE   =      3065.2260  DIHED      =      4898.8560
 1-4 NB =      1411.5463  1-4 EEL =     16008.6784  VDWAALS    =     15623.2479
 EELEC  =   -181930.1988  EHBOND  =         0.0000  RESTRAINT  =         0.0000
 EKCMT  =         0.0000  VIRIAL  =         0.0000  VOLUME     =    462604.7823
                                                    Density    =         1.0301
 DV/DL  =         2.6365
 ------------------------------------------------------------------------------

      R M S  F L U C T U A T I O N S

 NSTEP =   500000   TIME(PS) =    1020.000  TEMP(K) =     3.55  PRESS =     0.0
 Etot   =      1010.1275  EKtot   =       339.6148  EPtot      =       699.3095
 BOND   =        31.6155  ANGLE   =        51.5105  DIHED      =        26.3956
 1-4 NB =        15.4269  1-4 EEL =        46.4543  VDWAALS    =       330.4417
 EELEC  =       943.7042  EHBOND  =         0.0000  RESTRAINT  =         0.0000
 EKCMT  =         0.0000  VIRIAL  =         0.0000  VOLUME     =       917.9648
                                                    Density    =         0.0020
 DV/DL  =         2.9794
 ------------------------------------------------------------------------------

      DV/DL, AVERAGES OVER  500000 STEPS

 NSTEP =   500000   TIME(PS) =    1020.000  TEMP(K) =     3.55  PRESS =     0.0
 Etot   =         0.0000  EKtot   =         0.0000  EPtot      =         2.6102
 BOND   =         0.0000  ANGLE   =         0.0000  DIHED      =         0.0000
 1-4 NB =         0.0000  1-4 EEL =         0.0000  VDWAALS    =        -0.2837
 EELEC  =        -0.1933  EHBOND  =         0.0000  RESTRAINT  =         0.0000
 EKCMT  =         0.0000  VIRIAL  =         0.0000  VOLUME     =         0.0000
                                                    Density    =         0.0000
 DV/DL  =         2.6102
 ------------------------------------------------------------------------------
