-------------------------------------------------------
          Amber 16 PMEMD                              2016
          -------------------------------------------------------

  [-O]verwriting output

File Assignments:

 Here is the input file:

TI/FEP, NpT, vdW+bonded transformation
 &cntrl
 ! please adjust namelist parameters to your needs!

 ! parameters for general MD
 imin = 0, nstlim = 500000, irest = 1, ntx = 5, dt = 0.002,
 ntt = 3, temp0 = 298.0, gamma_ln = 2.0, ig = -1,
 ntb = 2,
 ntp = 1, barostat = 2, pres0 = 1.01325, taup = 2.0,
 ntwe = 1000, ntwx = 10000, ntpr = 1000, ntwr = 50000, ntave = 50000,
 ioutfm = 1, iwrap = 1, ntxo = 2,

 ! parameters for alchemical free energy simulation
 ntc = 2, ntf = 1,
 noshakemask = ':1,2',

 icfe = 1, ifsc = 1, clambda = 1.0, scalpha = 0.5, scbeta = 12.0,
 ifmbar = 0, bar_intervall = 500, bar_l_min = 0.0, bar_l_max = 1.0,
 bar_l_incr = 0.1,   ! ntpr = bar_intervall for alchemical analysis tool

 timask1=':1', timask2=':2',
scmask1='',
scmask2=':2@C28,O29,C30,H50,H51,H52,H53',
 crgmask = '',
 /
 &ewald
 /

Note: ig = -1. Setting random seed to   678704 based on wallclock time in
      microseconds.

--------------------------------------------------------------------------------
   1.  RESOURCE   USE:
--------------------------------------------------------------------------------

 getting box info from netcdf restart file
 NATOM  =    5979 NTYPES =      16 NBONH =    5922 MBONA  =      59
 NTHETH =      86 MTHETA =      80 NPHIH =     132 MPHIA  =     124
 NHPARM =       0 NPARM  =       0 NNB   =    8319 NRES   =    1962
 NBONA  =      59 NTHETA =      80 NPHIA =     124 NUMBND =      21
 NUMANG =      31 NPTRA  =      21 NATYP =      17 NPHB   =       1
 IFBOX  =       1 NMXRS  =      53 IFCAP =       0 NEXTRA =       0
 NCOPY  =       0

     BOX TYPE: RECTILINEAR

--------------------------------------------------------------------------------
   2.  CONTROL  DATA  FOR  THE  RUN
--------------------------------------------------------------------------------

L0

General flags:
     imin    =       0, nmropt  =       0

Nature and format of input:
     ntx     =       5, irest   =       1, ntrx    =       1

Nature and format of output:
     ntxo    =       2, ntpr    =    1000, ntrx    =       1, ntwr    =   50000
     iwrap   =       1, ntwx    =   10000, ntwv    =       0, ntwe    =    1000
     ioutfm  =       1, ntwprt  =       0, idecomp =       0, rbornstat=      0

Potential function:
     ntf     =       1, ntb     =       2, igb     =       0, nsnb    =      25
     ipol    =       0, gbsa    =       0, iesp    =       0
     dielc   =   1.00000, cut     =   8.00000, intdiel =   1.00000

Frozen or restrained atoms:
     ibelly  =       0, ntr     =       0

Molecular dynamics:
     nstlim  =    500000, nscm    =      1000, nrespa  =         1
     t       =   0.00000, dt      =   0.00200, vlimit  =  -1.00000

Langevin dynamics temperature regulation:
     ig      =  678704
     temp0   = 298.00000, tempi   =   0.00000, gamma_ln=   2.00000

Pressure regulation:
     ntp     =       1
     pres0   =   1.01325, comp    =  44.60000, taup    =   2.00000
     Monte-Carlo Barostat:
     mcbarint  =     100

SHAKE:
     ntc     =       2, jfastw  =       0
     tol     =   0.00001

Free energy options:
     icfe    =       1, ifsc    =       1, klambda =       1
     clambda =  1.0000, scalpha =  0.5000, scbeta  = 12.0000
     sceeorder =       2
     dynlmb =  0.0000 logdvdl =       0

Ewald parameters:
     verbose =       0, ew_type =       0, nbflag  =       1, use_pme =       1
     vdwmeth =       1, eedmeth =       1, netfrc  =       1
     Box X =   40.877   Box Y =   43.011   Box Z =   34.124
     Alpha =   90.000   Beta  =   90.000   Gamma =   90.000
     NFFT1 =   48       NFFT2 =   48       NFFT3 =   36
     Cutoff=    8.000   Tol   =0.100E-04
     Ewald Coefficient =  0.34864
     Interpolation order =    4
     TI Mask 1 :1; matches     46 atoms
     TI Mask 2 :2; matches     53 atoms
     TI region 1:    5926 atoms
     TI region 2:    5933 atoms
     SC Mask 2 :2@C28,O29,C30,H50,H51,H52,H53; matches      7 atoms
 Noshake mask :1,2; matches      99 atoms.

--------------------------------------------------------------------------------
   3.  ATOMIC COORDINATES AND VELOCITIES
--------------------------------------------------------------------------------

L0
 begin time read from input coords =    20.000 ps

     Molecule     1 is partially softcore
     Molecule     2 is partially softcore
 Number of triangulated 3-point waters found:     1960
   Removing shake constraints from C27   L0    1 -- H44   L0    1
   Removing shake constraints from C27   L0    1 -- H45   L0    1
   Removing shake constraints from C27   L0    1 -- H46   L0    1
   Removing shake constraints from C25   L0    1 -- H43   L0    1
   Removing shake constraints from C21   L0    1 -- H42   L0    1
   Removing shake constraints from C20   L0    1 -- H39   L0    1
   Removing shake constraints from C20   L0    1 -- H40   L0    1
   Removing shake constraints from C20   L0    1 -- H41   L0    1
   Removing shake constraints from C16   L0    1 -- H37   L0    1
   Removing shake constraints from C16   L0    1 -- H38   L0    1
   Removing shake constraints from N13   L0    1 -- H36   L0    1
   Removing shake constraints from N9    L0    1 -- H35   L0    1
   Removing shake constraints from N9    L0    1 -- H34   L0    1
   Removing shake constraints from C7    L0    1 -- H33   L0    1
   Removing shake constraints from C2    L0    1 -- H31   L0    1
   Removing shake constraints from C2    L0    1 -- H32   L0    1
   Removing shake constraints from C1    L0    1 -- H28   L0    1
   Removing shake constraints from C1    L0    1 -- H29   L0    1
   Removing shake constraints from C1    L0    1 -- H30   L0    1
   Removing shake constraints from C30   INT   2 -- H52   INT   2
   Removing shake constraints from C30   INT   2 -- H53   INT   2
   Removing shake constraints from C30   INT   2 -- H51   INT   2
   Removing shake constraints from C26   INT   2 -- H47   INT   2
   Removing shake constraints from C26   INT   2 -- H48   INT   2
   Removing shake constraints from C26   INT   2 -- H49   INT   2
   Removing shake constraints from C24   INT   2 -- H46   INT   2
   Removing shake constraints from N27   INT   2 -- H50   INT   2
   Removing shake constraints from C21   INT   2 -- H45   INT   2
   Removing shake constraints from C20   INT   2 -- H42   INT   2
   Removing shake constraints from C20   INT   2 -- H43   INT   2
   Removing shake constraints from C20   INT   2 -- H44   INT   2
   Removing shake constraints from C16   INT   2 -- H40   INT   2
   Removing shake constraints from C16   INT   2 -- H41   INT   2
   Removing shake constraints from N13   INT   2 -- H39   INT   2
   Removing shake constraints from N9    INT   2 -- H38   INT   2
   Removing shake constraints from N9    INT   2 -- H37   INT   2
   Removing shake constraints from C7    INT   2 -- H36   INT   2
   Removing shake constraints from C2    INT   2 -- H34   INT   2
   Removing shake constraints from C2    INT   2 -- H35   INT   2
   Removing shake constraints from C1    INT   2 -- H31   INT   2
   Removing shake constraints from C1    INT   2 -- H32   INT   2
   Removing shake constraints from C1    INT   2 -- H33   INT   2
 WARNING: SHAKEn bond for atoms       69       96 is partially softcore.
 Coordinates for common atoms will be synchronized from V0.
 Consider using noshake mask or disabling SHAKE.

 Number of shake restraints removed in TI region  1 :       19
 Number of shake restraints removed in TI region  2 :       23

     Sum of charges for TI region  1 =   0.00001100
     Forcing neutrality...

     Sum of charges for TI region  2 =   0.00001100
     Forcing neutrality...

--------------------------------------------------------------------------------
   4.  RESULTS
 NSTEP =     1000   TIME(PS) =      22.000  TEMP(K) =   279.14  PRESS =     0.0
 Etot   =    -16370.6048  EKtot   =      3294.6792  EPtot      =    -19665.2840
 BOND   =        10.5681  ANGLE   =        18.1888  DIHED      =        17.0819
 1-4 NB =        15.2607  1-4 EEL =      -636.7199  VDWAALS    =      3051.8096
 EELEC  =    -22141.4731  EHBOND  =         0.0000  RESTRAINT  =         0.0000
 EKCMT  =         0.0000  VIRIAL  =         0.0000  VOLUME     =     60318.8360
                                                    Density    =         0.9841
 DV/DL  =       -31.8758
 ------------------------------------------------------------------------------

      A V E R A G E S   O V E R   50000 S T E P S

 NSTEP =    50000   TIME(PS) =     120.000  TEMP(K) =   297.52  PRESS =     0.0
 Etot   =    -15553.0432  EKtot   =      3511.6341  EPtot      =    -19064.6774
 BOND   =        18.2893  ANGLE   =        20.8990  DIHED      =        17.3994
 1-4 NB =        14.9463  1-4 EEL =      -640.2110  VDWAALS    =      2801.7258
 EELEC  =    -21297.7262  EHBOND  =         0.0000  RESTRAINT  =         0.0000
 EKCMT  =         0.0000  VIRIAL  =         0.0000  VOLUME     =     60153.9759
                                                    Density    =         0.9868
 DV/DL  =       -38.6382
 ------------------------------------------------------------------------------

      R M S  F L U C T U A T I O N S

 NSTEP =    50000   TIME(PS) =     120.000  TEMP(K) =    10.21  PRESS =     0.0
 Etot   =       404.7300  EKtot   =       120.5347  EPtot      =       294.5883
 BOND   =         3.8233  ANGLE   =         3.7777  DIHED      =         3.3726
 1-4 NB =         1.4006  1-4 EEL =         4.3351  VDWAALS    =       149.3304
 EELEC  =       431.3121  EHBOND  =         0.0000  RESTRAINT  =         0.0000
 EKCMT  =         0.0000  VIRIAL  =         0.0000  VOLUME     =       313.6404
                                                    Density    =         0.0051
 DV/DL  =         7.1972
 ------------------------------------------------------------------------------

      A V E R A G E S   O V E R   50000 S T E P S

 NSTEP =    50000   TIME(PS) =     120.000  TEMP(K) =   297.47  PRESS =     0.0
 Etot   =    -15547.4841  EKtot   =      3517.1933  EPtot      =    -19064.6774
 BOND   =        18.2893  ANGLE   =        20.8990  DIHED      =        17.3994
 1-4 NB =        14.9463  1-4 EEL =      -640.2110  VDWAALS    =      2801.7258
 EELEC  =    -21297.7262  EHBOND  =         0.0000  RESTRAINT  =         0.0000
 EKCMT  =         0.0000  VIRIAL  =         0.0000  VOLUME     =     60153.9759
                                                    Density    =         0.9880
 DV/DL  =       -38.6382
 ------------------------------------------------------------------------------

      R M S  F L U C T U A T I O N S

 NSTEP =    50000   TIME(PS) =     120.000  TEMP(K) =    10.21  PRESS =     0.0
 Etot   =       404.8241  EKtot   =       120.6733  EPtot      =       294.5883
 BOND   =         3.8233  ANGLE   =         3.7777  DIHED      =         3.3726
 1-4 NB =         1.4006  1-4 EEL =         4.3351  VDWAALS    =       149.3304
 EELEC  =       431.3121  EHBOND  =         0.0000  RESTRAINT  =         0.0000
 EKCMT  =         0.0000  VIRIAL  =         0.0000  VOLUME     =       313.6404
                                                    Density    =         0.0052
 DV/DL  =         7.1972
 ------------------------------------------------------------------------------

      DV/DL, AVERAGES OVER   50000 STEPS

 NSTEP =    50000   TIME(PS) =     120.000  TEMP(K) =    10.21  PRESS =     0.0
 Etot   =         0.0000  EKtot   =         0.0000  EPtot      =       -38.2509
 BOND   =         0.0000  ANGLE   =         0.0000  DIHED      =         0.0000
 1-4 NB =         0.0000  1-4 EEL =         0.0000  VDWAALS    =        -0.3353
 EELEC  =         0.0000  EHBOND  =         0.0000  RESTRAINT  =         0.0000
 EKCMT  =         0.0000  VIRIAL  =         0.0000  VOLUME     =         0.0000
                                                    Density    =         0.0000
 DV/DL  =       -38.2509
 ------------------------------------------------------------------------------

      A V E R A G E S   O V E R   50000 S T E P S

 NSTEP =   100000   TIME(PS) =     220.000  TEMP(K) =   298.05  PRESS =     0.0
 Etot   =    -15526.0540  EKtot   =      3517.9009  EPtot      =    -19043.9549
 BOND   =        18.3822  ANGLE   =        20.9096  DIHED      =        16.7232
 1-4 NB =        14.8721  1-4 EEL =      -640.5092  VDWAALS    =      2787.8124
 EELEC  =    -21262.1452  EHBOND  =         0.0000  RESTRAINT  =         0.0000
 EKCMT  =         0.0000  VIRIAL  =         0.0000  VOLUME     =     60048.1743
                                                    Density    =         0.9886
 DV/DL  =       -38.2337
 ------------------------------------------------------------------------------

      R M S  F L U C T U A T I O N S

 NSTEP =   100000   TIME(PS) =     220.000  TEMP(K) =     3.94  PRESS =     0.0
 Etot   =        91.8234  EKtot   =        46.5035  EPtot      =        76.3234
 BOND   =         3.8774  ANGLE   =         3.6647  DIHED      =         3.3908
 1-4 NB =         1.3900  1-4 EEL =         4.3552  VDWAALS    =        68.8288
 EELEC  =       118.4191  EHBOND  =         0.0000  RESTRAINT  =         0.0000
 EKCMT  =         0.0000  VIRIAL  =         0.0000  VOLUME     =       459.5964
                                                    Density    =         0.0076
 DV/DL  =         7.3997
 ------------------------------------------------------------------------------

      A V E R A G E S   O V E R   50000 S T E P S

 NSTEP =   100000   TIME(PS) =     220.000  TEMP(K) =   298.02  PRESS =     0.0
 Etot   =    -15520.2761  EKtot   =      3523.6789  EPtot      =    -19043.9549
 BOND   =        18.3822  ANGLE   =        20.9096  DIHED      =        16.7232
 1-4 NB =        14.8721  1-4 EEL =      -640.5092  VDWAALS    =      2787.8124
 EELEC  =    -21262.1452  EHBOND  =         0.0000  RESTRAINT  =         0.0000
 EKCMT  =         0.0000  VIRIAL  =         0.0000  VOLUME     =     60048.1743
                                                    Density    =         0.9898
 DV/DL  =       -38.2337
 ------------------------------------------------------------------------------

      R M S  F L U C T U A T I O N S

 NSTEP =   100000   TIME(PS) =     220.000  TEMP(K) =     3.94  PRESS =     0.0
 Etot   =        91.9228  EKtot   =        46.5791  EPtot      =        76.3234
 BOND   =         3.8774  ANGLE   =         3.6647  DIHED      =         3.3908
 1-4 NB =         1.3900  1-4 EEL =         4.3552  VDWAALS    =        68.8288
 EELEC  =       118.4191  EHBOND  =         0.0000  RESTRAINT  =         0.0000
 EKCMT  =         0.0000  VIRIAL  =         0.0000  VOLUME     =       459.5964
                                                    Density    =         0.0076
 DV/DL  =         7.3997
 ------------------------------------------------------------------------------

      DV/DL, AVERAGES OVER   50000 STEPS

 NSTEP =   100000   TIME(PS) =     220.000  TEMP(K) =     3.94  PRESS =     0.0
 Etot   =         0.0000  EKtot   =         0.0000  EPtot      =       -37.8523
 BOND   =         0.0000  ANGLE   =         0.0000  DIHED      =         0.0000
 1-4 NB =         0.0000  1-4 EEL =         0.0000  VDWAALS    =        -0.3359
 EELEC  =         0.0000  EHBOND  =         0.0000  RESTRAINT  =         0.0000
 EKCMT  =         0.0000  VIRIAL  =         0.0000  VOLUME     =         0.0000
                                                    Density    =         0.0000
 DV/DL  =       -37.8523
 ------------------------------------------------------------------------------

      A V E R A G E S   O V E R   50000 S T E P S

 NSTEP =   500000   TIME(PS) =    1020.000  TEMP(K) =   298.92  PRESS =     0.0
 Etot   =    -15486.3022  EKtot   =      3528.0883  EPtot      =    -19014.3906
 BOND   =        18.4460  ANGLE   =        20.1438  DIHED      =        16.2246
 1-4 NB =        14.8471  1-4 EEL =      -639.7560  VDWAALS    =      2778.5370
 EELEC  =    -21222.8331  EHBOND  =         0.0000  RESTRAINT  =         0.0000
 EKCMT  =         0.0000  VIRIAL  =         0.0000  VOLUME     =     60067.9334
                                                    Density    =         0.9883
 DV/DL  =       -38.4802
 ------------------------------------------------------------------------------

      R M S  F L U C T U A T I O N S

 NSTEP =   500000   TIME(PS) =    1020.000  TEMP(K) =     3.97  PRESS =     0.0
 Etot   =        80.1457  EKtot   =        46.8607  EPtot      =        65.9786
 BOND   =         3.8780  ANGLE   =         3.6389  DIHED      =         3.4428
 1-4 NB =         1.3747  1-4 EEL =         4.1709  VDWAALS    =        68.0517
 EELEC  =       106.0735  EHBOND  =         0.0000  RESTRAINT  =         0.0000
 EKCMT  =         0.0000  VIRIAL  =         0.0000  VOLUME     =       479.3896
                                                    Density    =         0.0079
 DV/DL  =         7.2059
 ------------------------------------------------------------------------------

      A V E R A G E S   O V E R   50000 S T E P S

 NSTEP =   500000   TIME(PS) =    1020.000  TEMP(K) =   298.87  PRESS =     0.0
 Etot   =    -15480.6731  EKtot   =      3533.7175  EPtot      =    -19014.3906
 BOND   =        18.4460  ANGLE   =        20.1438  DIHED      =        16.2246
 1-4 NB =        14.8471  1-4 EEL =      -639.7560  VDWAALS    =      2778.5370
 EELEC  =    -21222.8331  EHBOND  =         0.0000  RESTRAINT  =         0.0000
 EKCMT  =         0.0000  VIRIAL  =         0.0000  VOLUME     =     60067.9334
                                                    Density    =         0.9895
 DV/DL  =       -38.4802
 ------------------------------------------------------------------------------

      R M S  F L U C T U A T I O N S

 NSTEP =   500000   TIME(PS) =    1020.000  TEMP(K) =     3.97  PRESS =     0.0
 Etot   =        80.3076  EKtot   =        46.9736  EPtot      =        65.9786
 BOND   =         3.8780  ANGLE   =         3.6389  DIHED      =         3.4428
 1-4 NB =         1.3747  1-4 EEL =         4.1709  VDWAALS    =        68.0517
 EELEC  =       106.0735  EHBOND  =         0.0000  RESTRAINT  =         0.0000
 EKCMT  =         0.0000  VIRIAL  =         0.0000  VOLUME     =       479.3896
                                                    Density    =         0.0079
 DV/DL  =         7.2059
 ------------------------------------------------------------------------------

      DV/DL, AVERAGES OVER   50000 STEPS

 NSTEP =   500000   TIME(PS) =    1020.000  TEMP(K) =     3.97  PRESS =     0.0
 Etot   =         0.0000  EKtot   =         0.0000  EPtot      =       -38.0942
 BOND   =         0.0000  ANGLE   =         0.0000  DIHED      =         0.0000
 1-4 NB =         0.0000  1-4 EEL =         0.0000  VDWAALS    =        -0.3358
 EELEC  =         0.0000  EHBOND  =         0.0000  RESTRAINT  =         0.0000
 EKCMT  =         0.0000  VIRIAL  =         0.0000  VOLUME     =         0.0000
                                                    Density    =         0.0000
 DV/DL  =       -38.0942
 ------------------------------------------------------------------------------

      A V E R A G E S   O V E R  500000 S T E P S

 NSTEP =   500000   TIME(PS) =    1020.000  TEMP(K) =   298.40  PRESS =     0.0
 Etot   =    -15508.8509  EKtot   =      3522.0344  EPtot      =    -19030.8853
 BOND   =        18.5695  ANGLE   =        20.5571  DIHED      =        17.2433
 1-4 NB =        14.9118  1-4 EEL =      -640.2033  VDWAALS    =      2783.8534
 EELEC  =    -21245.8171  EHBOND  =         0.0000  RESTRAINT  =         0.0000
 EKCMT  =         0.0000  VIRIAL  =         0.0000  VOLUME     =     60089.0826
                                                    Density    =         0.9879
 DV/DL  =       -38.5152
 ------------------------------------------------------------------------------

      R M S  F L U C T U A T I O N S

 NSTEP =   500000   TIME(PS) =    1020.000  TEMP(K) =     4.92  PRESS =     0.0
 Etot   =       150.9056  EKtot   =        58.0254  EPtot      =       114.0526
 BOND   =         3.8611  ANGLE   =         3.6796  DIHED      =         3.6386
 1-4 NB =         1.4212  1-4 EEL =         4.3614  VDWAALS    =        80.8704
 EELEC  =       172.8355  EHBOND  =         0.0000  RESTRAINT  =         0.0000
 EKCMT  =         0.0000  VIRIAL  =         0.0000  VOLUME     =       382.5587
                                                    Density    =         0.0063
 DV/DL  =         7.3047
 ------------------------------------------------------------------------------

      A V E R A G E S   O V E R  500000 S T E P S

 NSTEP =   500000   TIME(PS) =    1020.000  TEMP(K) =   298.35  PRESS =     0.0
 Etot   =    -15503.3118  EKtot   =      3527.5735  EPtot      =    -19030.8853
 BOND   =        18.5695  ANGLE   =        20.5571  DIHED      =        17.2433
 1-4 NB =        14.9118  1-4 EEL =      -640.2033  VDWAALS    =      2783.8534
 EELEC  =    -21245.8171  EHBOND  =         0.0000  RESTRAINT  =         0.0000
 EKCMT  =         0.0000  VIRIAL  =         0.0000  VOLUME     =     60089.0826
                                                    Density    =         0.9891
 DV/DL  =       -38.5152
 ------------------------------------------------------------------------------

      R M S  F L U C T U A T I O N S

 NSTEP =   500000   TIME(PS) =    1020.000  TEMP(K) =     4.91  PRESS =     0.0
 Etot   =       150.9455  EKtot   =        58.0859  EPtot      =       114.0526
 BOND   =         3.8611  ANGLE   =         3.6796  DIHED      =         3.6386
 1-4 NB =         1.4212  1-4 EEL =         4.3614  VDWAALS    =        80.8704
 EELEC  =       172.8355  EHBOND  =         0.0000  RESTRAINT  =         0.0000
 EKCMT  =         0.0000  VIRIAL  =         0.0000  VOLUME     =       382.5587
                                                    Density    =         0.0063
 DV/DL  =         7.3047
 ------------------------------------------------------------------------------

      DV/DL, AVERAGES OVER  500000 STEPS

 NSTEP =   500000   TIME(PS) =    1020.000  TEMP(K) =     4.91  PRESS =     0.0
 Etot   =         0.0000  EKtot   =         0.0000  EPtot      =       -38.1303
 BOND   =         0.0000  ANGLE   =         0.0000  DIHED      =         0.0000
 1-4 NB =         0.0000  1-4 EEL =         0.0000  VDWAALS    =        -0.3357
 EELEC  =         0.0000  EHBOND  =         0.0000  RESTRAINT  =         0.0000
 EKCMT  =         0.0000  VIRIAL  =         0.0000  VOLUME     =         0.0000
                                                    Density    =         0.0000
 DV/DL  =       -38.1303
 ------------------------------------------------------------------------------
