-------------------------------------------------------
          Amber 16 PMEMD                              2016
          -------------------------------------------------------

  [-O]verwriting output

File Assignments:

 Here is the input file:

TI/FEP, NpT, vdW+bonded transformation
 &cntrl
 ! please adjust namelist parameters to your needs!

 ! parameters for general MD
 imin = 0, nstlim = 500000, irest = 1, ntx = 5, dt = 0.002,
 ntt = 3, temp0 = 298.0, gamma_ln = 2.0, ig = -1,
 ntb = 2,
 ntp = 1, barostat = 2, pres0 = 1.01325, taup = 2.0,
 ntwe = 1000, ntwx = 10000, ntpr = 1000, ntwr = 50000, ntave = 50000,
 ioutfm = 1, iwrap = 1, ntxo = 2,

 ! parameters for alchemical free energy simulation
 ntc = 2, ntf = 1,
 noshakemask = ':1,2',

 icfe = 1, ifsc = 1, clambda = 0.0, scalpha = 0.5, scbeta = 12.0,
 ifmbar = 0, bar_intervall = 500, bar_l_min = 0.0, bar_l_max = 1.0,
 bar_l_incr = 0.1,   ! ntpr = bar_intervall for alchemical analysis tool

 timask1=':1', timask2=':2',
scmask1='',
scmask2=':2@C28,O29,C30,H50,H51,H52,H53',
 crgmask = '',
 /
 &ewald
 /

Note: ig = -1. Setting random seed to   756159 based on wallclock time in
      microseconds.

--------------------------------------------------------------------------------
   1.  RESOURCE   USE:
--------------------------------------------------------------------------------

 getting box info from netcdf restart file
 NATOM  =    5979 NTYPES =      16 NBONH =    5922 MBONA  =      59
 NTHETH =      86 MTHETA =      80 NPHIH =     132 MPHIA  =     124
 NHPARM =       0 NPARM  =       0 NNB   =    8319 NRES   =    1962
 NBONA  =      59 NTHETA =      80 NPHIA =     124 NUMBND =      21
 NUMANG =      31 NPTRA  =      21 NATYP =      17 NPHB   =       1
 IFBOX  =       1 NMXRS  =      53 IFCAP =       0 NEXTRA =       0
 NCOPY  =       0

     BOX TYPE: RECTILINEAR

--------------------------------------------------------------------------------
   2.  CONTROL  DATA  FOR  THE  RUN
--------------------------------------------------------------------------------

L0

General flags:
     imin    =       0, nmropt  =       0

Nature and format of input:
     ntx     =       5, irest   =       1, ntrx    =       1

Nature and format of output:
     ntxo    =       2, ntpr    =    1000, ntrx    =       1, ntwr    =   50000
     iwrap   =       1, ntwx    =   10000, ntwv    =       0, ntwe    =    1000
     ioutfm  =       1, ntwprt  =       0, idecomp =       0, rbornstat=      0

Potential function:
     ntf     =       1, ntb     =       2, igb     =       0, nsnb    =      25
     ipol    =       0, gbsa    =       0, iesp    =       0
     dielc   =   1.00000, cut     =   8.00000, intdiel =   1.00000

Frozen or restrained atoms:
     ibelly  =       0, ntr     =       0

Molecular dynamics:
     nstlim  =    500000, nscm    =      1000, nrespa  =         1
     t       =   0.00000, dt      =   0.00200, vlimit  =  -1.00000

Langevin dynamics temperature regulation:
     ig      =  756159
     temp0   = 298.00000, tempi   =   0.00000, gamma_ln=   2.00000

Pressure regulation:
     ntp     =       1
     pres0   =   1.01325, comp    =  44.60000, taup    =   2.00000
     Monte-Carlo Barostat:
     mcbarint  =     100

SHAKE:
     ntc     =       2, jfastw  =       0
     tol     =   0.00001

Free energy options:
     icfe    =       1, ifsc    =       1, klambda =       1
     clambda =  0.0000, scalpha =  0.5000, scbeta  = 12.0000
     sceeorder =       2
     dynlmb =  0.0000 logdvdl =       0

Ewald parameters:
     verbose =       0, ew_type =       0, nbflag  =       1, use_pme =       1
     vdwmeth =       1, eedmeth =       1, netfrc  =       1
     Box X =   40.877   Box Y =   43.011   Box Z =   34.124
     Alpha =   90.000   Beta  =   90.000   Gamma =   90.000
     NFFT1 =   48       NFFT2 =   48       NFFT3 =   36
     Cutoff=    8.000   Tol   =0.100E-04
     Ewald Coefficient =  0.34864
     Interpolation order =    4
     TI Mask 1 :1; matches     46 atoms
     TI Mask 2 :2; matches     53 atoms
     TI region 1:    5926 atoms
     TI region 2:    5933 atoms
     SC Mask 2 :2@C28,O29,C30,H50,H51,H52,H53; matches      7 atoms
 Noshake mask :1,2; matches      99 atoms.

--------------------------------------------------------------------------------
   3.  ATOMIC COORDINATES AND VELOCITIES
--------------------------------------------------------------------------------

L0
 begin time read from input coords =    20.000 ps

     Molecule     1 is partially softcore
     Molecule     2 is partially softcore
 Number of triangulated 3-point waters found:     1960
   Removing shake constraints from C27   L0    1 -- H44   L0    1
   Removing shake constraints from C27   L0    1 -- H45   L0    1
   Removing shake constraints from C27   L0    1 -- H46   L0    1
   Removing shake constraints from C25   L0    1 -- H43   L0    1
   Removing shake constraints from C21   L0    1 -- H42   L0    1
   Removing shake constraints from C20   L0    1 -- H39   L0    1
   Removing shake constraints from C20   L0    1 -- H40   L0    1
   Removing shake constraints from C20   L0    1 -- H41   L0    1
   Removing shake constraints from C16   L0    1 -- H37   L0    1
   Removing shake constraints from C16   L0    1 -- H38   L0    1
   Removing shake constraints from N13   L0    1 -- H36   L0    1
   Removing shake constraints from N9    L0    1 -- H35   L0    1
   Removing shake constraints from N9    L0    1 -- H34   L0    1
   Removing shake constraints from C7    L0    1 -- H33   L0    1
   Removing shake constraints from C2    L0    1 -- H31   L0    1
   Removing shake constraints from C2    L0    1 -- H32   L0    1
   Removing shake constraints from C1    L0    1 -- H28   L0    1
   Removing shake constraints from C1    L0    1 -- H29   L0    1
   Removing shake constraints from C1    L0    1 -- H30   L0    1
   Removing shake constraints from C30   INT   2 -- H52   INT   2
   Removing shake constraints from C30   INT   2 -- H53   INT   2
   Removing shake constraints from C30   INT   2 -- H51   INT   2
   Removing shake constraints from C26   INT   2 -- H47   INT   2
   Removing shake constraints from C26   INT   2 -- H48   INT   2
   Removing shake constraints from C26   INT   2 -- H49   INT   2
   Removing shake constraints from C24   INT   2 -- H46   INT   2
   Removing shake constraints from N27   INT   2 -- H50   INT   2
   Removing shake constraints from C21   INT   2 -- H45   INT   2
   Removing shake constraints from C20   INT   2 -- H42   INT   2
   Removing shake constraints from C20   INT   2 -- H43   INT   2
   Removing shake constraints from C20   INT   2 -- H44   INT   2
   Removing shake constraints from C16   INT   2 -- H40   INT   2
   Removing shake constraints from C16   INT   2 -- H41   INT   2
   Removing shake constraints from N13   INT   2 -- H39   INT   2
   Removing shake constraints from N9    INT   2 -- H38   INT   2
   Removing shake constraints from N9    INT   2 -- H37   INT   2
   Removing shake constraints from C7    INT   2 -- H36   INT   2
   Removing shake constraints from C2    INT   2 -- H34   INT   2
   Removing shake constraints from C2    INT   2 -- H35   INT   2
   Removing shake constraints from C1    INT   2 -- H31   INT   2
   Removing shake constraints from C1    INT   2 -- H32   INT   2
   Removing shake constraints from C1    INT   2 -- H33   INT   2
 WARNING: SHAKEn bond for atoms       69       96 is partially softcore.
 Coordinates for common atoms will be synchronized from V0.
 Consider using noshake mask or disabling SHAKE.

 Number of shake restraints removed in TI region  1 :       19
 Number of shake restraints removed in TI region  2 :       23

     Sum of charges for TI region  1 =   0.00001100
     Forcing neutrality...

     Sum of charges for TI region  2 =   0.00001100
     Forcing neutrality...

--------------------------------------------------------------------------------
   4.  RESULTS
 NSTEP =     1000   TIME(PS) =      22.000  TEMP(K) =   278.49  PRESS =     0.0
 Etot   =    -16419.8254  EKtot   =      3286.9675  EPtot      =    -19706.7930
 BOND   =        16.0836  ANGLE   =        20.1160  DIHED      =        21.0915
 1-4 NB =        13.5356  1-4 EEL =      -642.4688  VDWAALS    =      3070.5410
 EELEC  =    -22205.6919  EHBOND  =         0.0000  RESTRAINT  =         0.0000
 EKCMT  =         0.0000  VIRIAL  =         0.0000  VOLUME     =     60717.9449
                                                    Density    =         0.9776
 DV/DL  =        87.5097
 ------------------------------------------------------------------------------

      A V E R A G E S   O V E R   50000 S T E P S

 NSTEP =    50000   TIME(PS) =     120.000  TEMP(K) =   297.08  PRESS =     0.0
 Etot   =    -15567.4773  EKtot   =      3506.3917  EPtot      =    -19073.8690
 BOND   =        18.2682  ANGLE   =        20.4588  DIHED      =        16.9754
 1-4 NB =        14.6108  1-4 EEL =      -640.2091  VDWAALS    =      2806.1584
 EELEC  =    -21310.1316  EHBOND  =         0.0000  RESTRAINT  =         0.0000
 EKCMT  =         0.0000  VIRIAL  =         0.0000  VOLUME     =     59997.7761
                                                    Density    =         0.9894
 DV/DL  =        78.0924
 ------------------------------------------------------------------------------

      R M S  F L U C T U A T I O N S

 NSTEP =    50000   TIME(PS) =     120.000  TEMP(K) =    10.24  PRESS =     0.0
 Etot   =       407.6779  EKtot   =       120.8218  EPtot      =       296.9027
 BOND   =         3.8789  ANGLE   =         3.6769  DIHED      =         3.3861
 1-4 NB =         1.3889  1-4 EEL =         4.2866  VDWAALS    =       147.9115
 EELEC  =       432.8671  EHBOND  =         0.0000  RESTRAINT  =         0.0000
 EKCMT  =         0.0000  VIRIAL  =         0.0000  VOLUME     =       432.0151
                                                    Density    =         0.0071
 DV/DL  =        13.5939
 ------------------------------------------------------------------------------

      A V E R A G E S   O V E R   50000 S T E P S

 NSTEP =    50000   TIME(PS) =     120.000  TEMP(K) =   297.02  PRESS =     0.0
 Etot   =    -15561.9818  EKtot   =      3511.8872  EPtot      =    -19073.8690
 BOND   =        18.2682  ANGLE   =        20.4588  DIHED      =        16.9754
 1-4 NB =        14.6108  1-4 EEL =      -640.2091  VDWAALS    =      2806.1584
 EELEC  =    -21310.1316  EHBOND  =         0.0000  RESTRAINT  =         0.0000
 EKCMT  =         0.0000  VIRIAL  =         0.0000  VOLUME     =     59997.7761
                                                    Density    =         0.9906
 DV/DL  =        78.0924
 ------------------------------------------------------------------------------

      R M S  F L U C T U A T I O N S

 NSTEP =    50000   TIME(PS) =     120.000  TEMP(K) =    10.24  PRESS =     0.0
 Etot   =       407.9420  EKtot   =       121.0899  EPtot      =       296.9027
 BOND   =         3.8789  ANGLE   =         3.6769  DIHED      =         3.3861
 1-4 NB =         1.3889  1-4 EEL =         4.2866  VDWAALS    =       147.9115
 EELEC  =       432.8671  EHBOND  =         0.0000  RESTRAINT  =         0.0000
 EKCMT  =         0.0000  VIRIAL  =         0.0000  VOLUME     =       432.0151
                                                    Density    =         0.0071
 DV/DL  =        13.5939
 ------------------------------------------------------------------------------

      DV/DL, AVERAGES OVER   50000 STEPS

 NSTEP =    50000   TIME(PS) =     120.000  TEMP(K) =    10.24  PRESS =     0.0
 Etot   =         0.0000  EKtot   =         0.0000  EPtot      =        77.3142
 BOND   =         0.0000  ANGLE   =         0.0000  DIHED      =         0.0000
 1-4 NB =         0.0000  1-4 EEL =         0.0000  VDWAALS    =        -0.3362
 EELEC  =         0.0000  EHBOND  =         0.0000  RESTRAINT  =         0.0000
 EKCMT  =         0.0000  VIRIAL  =         0.0000  VOLUME     =         0.0000
                                                    Density    =         0.0000
 DV/DL  =        77.3142
 ------------------------------------------------------------------------------

      A V E R A G E S   O V E R   50000 S T E P S

 NSTEP =   100000   TIME(PS) =     220.000  TEMP(K) =   298.76  PRESS =     0.0
 Etot   =    -15495.0506  EKtot   =      3526.1916  EPtot      =    -19021.2422
 BOND   =        18.4809  ANGLE   =        20.5467  DIHED      =        16.4829
 1-4 NB =        14.5638  1-4 EEL =      -639.4550  VDWAALS    =      2781.3150
 EELEC  =    -21233.1765  EHBOND  =         0.0000  RESTRAINT  =         0.0000
 EKCMT  =         0.0000  VIRIAL  =         0.0000  VOLUME     =     60054.1454
                                                    Density    =         0.9885
 DV/DL  =        78.3442
 ------------------------------------------------------------------------------

      R M S  F L U C T U A T I O N S

 NSTEP =   100000   TIME(PS) =     220.000  TEMP(K) =     3.93  PRESS =     0.0
 Etot   =        81.8603  EKtot   =        46.3608  EPtot      =        66.6869
 BOND   =         3.7860  ANGLE   =         3.5620  DIHED      =         3.4652
 1-4 NB =         1.3800  1-4 EEL =         4.2770  VDWAALS    =        70.8176
 EELEC  =       110.8676  EHBOND  =         0.0000  RESTRAINT  =         0.0000
 EKCMT  =         0.0000  VIRIAL  =         0.0000  VOLUME     =       309.4122
                                                    Density    =         0.0051
 DV/DL  =        13.8103
 ------------------------------------------------------------------------------

      A V E R A G E S   O V E R   50000 S T E P S

 NSTEP =   100000   TIME(PS) =     220.000  TEMP(K) =   298.69  PRESS =     0.0
 Etot   =    -15489.6502  EKtot   =      3531.5920  EPtot      =    -19021.2422
 BOND   =        18.4809  ANGLE   =        20.5467  DIHED      =        16.4829
 1-4 NB =        14.5638  1-4 EEL =      -639.4550  VDWAALS    =      2781.3150
 EELEC  =    -21233.1765  EHBOND  =         0.0000  RESTRAINT  =         0.0000
 EKCMT  =         0.0000  VIRIAL  =         0.0000  VOLUME     =     60054.1454
                                                    Density    =         0.9897
 DV/DL  =        78.3442
 ------------------------------------------------------------------------------

      R M S  F L U C T U A T I O N S

 NSTEP =   100000   TIME(PS) =     220.000  TEMP(K) =     3.91  PRESS =     0.0
 Etot   =        81.7308  EKtot   =        46.2618  EPtot      =        66.6869
 BOND   =         3.7860  ANGLE   =         3.5620  DIHED      =         3.4652
 1-4 NB =         1.3800  1-4 EEL =         4.2770  VDWAALS    =        70.8176
 EELEC  =       110.8676  EHBOND  =         0.0000  RESTRAINT  =         0.0000
 EKCMT  =         0.0000  VIRIAL  =         0.0000  VOLUME     =       309.4122
                                                    Density    =         0.0051
 DV/DL  =        13.8103
 ------------------------------------------------------------------------------

      DV/DL, AVERAGES OVER   50000 STEPS

 NSTEP =   100000   TIME(PS) =     220.000  TEMP(K) =     3.91  PRESS =     0.0
 Etot   =         0.0000  EKtot   =         0.0000  EPtot      =        77.5685
 BOND   =         0.0000  ANGLE   =         0.0000  DIHED      =         0.0000
 1-4 NB =         0.0000  1-4 EEL =         0.0000  VDWAALS    =        -0.3359
 EELEC  =         0.0000  EHBOND  =         0.0000  RESTRAINT  =         0.0000
 EKCMT  =         0.0000  VIRIAL  =         0.0000  VOLUME     =         0.0000
                                                    Density    =         0.0000
 DV/DL  =        77.5685
 ------------------------------------------------------------------------------

      A V E R A G E S   O V E R   50000 S T E P S

 NSTEP =   500000   TIME(PS) =    1020.000  TEMP(K) =   298.85  PRESS =     0.0
 Etot   =    -15493.5149  EKtot   =      3527.2598  EPtot      =    -19020.7747
 BOND   =        18.6994  ANGLE   =        20.3495  DIHED      =        16.8847
 1-4 NB =        14.9087  1-4 EEL =      -640.5307  VDWAALS    =      2781.9361
 EELEC  =    -21233.0224  EHBOND  =         0.0000  RESTRAINT  =         0.0000
 EKCMT  =         0.0000  VIRIAL  =         0.0000  VOLUME     =     60033.3578
                                                    Density    =         0.9888
 DV/DL  =        78.1791
 ------------------------------------------------------------------------------

      R M S  F L U C T U A T I O N S

 NSTEP =   500000   TIME(PS) =    1020.000  TEMP(K) =     3.76  PRESS =     0.0
 Etot   =        76.5676  EKtot   =        44.4005  EPtot      =        64.7202
 BOND   =         3.8470  ANGLE   =         3.5389  DIHED      =         3.5582
 1-4 NB =         1.4885  1-4 EEL =         4.3364  VDWAALS    =        66.7514
 EELEC  =       105.2243  EHBOND  =         0.0000  RESTRAINT  =         0.0000
 EKCMT  =         0.0000  VIRIAL  =         0.0000  VOLUME     =       351.9466
                                                    Density    =         0.0058
 DV/DL  =        13.7138
 ------------------------------------------------------------------------------

      A V E R A G E S   O V E R   50000 S T E P S

 NSTEP =   500000   TIME(PS) =    1020.000  TEMP(K) =   298.79  PRESS =     0.0
 Etot   =    -15487.9501  EKtot   =      3532.8246  EPtot      =    -19020.7747
 BOND   =        18.6994  ANGLE   =        20.3495  DIHED      =        16.8847
 1-4 NB =        14.9087  1-4 EEL =      -640.5307  VDWAALS    =      2781.9361
 EELEC  =    -21233.0224  EHBOND  =         0.0000  RESTRAINT  =         0.0000
 EKCMT  =         0.0000  VIRIAL  =         0.0000  VOLUME     =     60033.3578
                                                    Density    =         0.9900
 DV/DL  =        78.1791
 ------------------------------------------------------------------------------

      R M S  F L U C T U A T I O N S

 NSTEP =   500000   TIME(PS) =    1020.000  TEMP(K) =     3.76  PRESS =     0.0
 Etot   =        76.6376  EKtot   =        44.4375  EPtot      =        64.7202
 BOND   =         3.8470  ANGLE   =         3.5389  DIHED      =         3.5582
 1-4 NB =         1.4885  1-4 EEL =         4.3364  VDWAALS    =        66.7514
 EELEC  =       105.2243  EHBOND  =         0.0000  RESTRAINT  =         0.0000
 EKCMT  =         0.0000  VIRIAL  =         0.0000  VOLUME     =       351.9466
                                                    Density    =         0.0058
 DV/DL  =        13.7138
 ------------------------------------------------------------------------------

      DV/DL, AVERAGES OVER   50000 STEPS

 NSTEP =   500000   TIME(PS) =    1020.000  TEMP(K) =     3.76  PRESS =     0.0
 Etot   =         0.0000  EKtot   =         0.0000  EPtot      =        77.4021
 BOND   =         0.0000  ANGLE   =         0.0000  DIHED      =         0.0000
 1-4 NB =         0.0000  1-4 EEL =         0.0000  VDWAALS    =        -0.3360
 EELEC  =         0.0000  EHBOND  =         0.0000  RESTRAINT  =         0.0000
 EKCMT  =         0.0000  VIRIAL  =         0.0000  VOLUME     =         0.0000
                                                    Density    =         0.0000
 DV/DL  =        77.4021
 ------------------------------------------------------------------------------

      A V E R A G E S   O V E R  500000 S T E P S

 NSTEP =   500000   TIME(PS) =    1020.000  TEMP(K) =   298.46  PRESS =     0.0
 Etot   =    -15509.2959  EKtot   =      3522.6526  EPtot      =    -19031.9485
 BOND   =        18.5401  ANGLE   =        20.3009  DIHED      =        17.1201
 1-4 NB =        14.7282  1-4 EEL =      -639.9940  VDWAALS    =      2787.0496
 EELEC  =    -21249.6935  EHBOND  =         0.0000  RESTRAINT  =         0.0000
 EKCMT  =         0.0000  VIRIAL  =         0.0000  VOLUME     =     60010.2129
                                                    Density    =         0.9892
 DV/DL  =        78.3035
 ------------------------------------------------------------------------------

      R M S  F L U C T U A T I O N S

 NSTEP =   500000   TIME(PS) =    1020.000  TEMP(K) =     4.92  PRESS =     0.0
 Etot   =       151.8804  EKtot   =        58.0151  EPtot      =       114.8484
 BOND   =         3.8664  ANGLE   =         3.5942  DIHED      =         3.4910
 1-4 NB =         1.4426  1-4 EEL =         4.3255  VDWAALS    =        81.0324
 EELEC  =       173.7086  EHBOND  =         0.0000  RESTRAINT  =         0.0000
 EKCMT  =         0.0000  VIRIAL  =         0.0000  VOLUME     =       376.2828
                                                    Density    =         0.0062
 DV/DL  =        13.7245
 ------------------------------------------------------------------------------

      A V E R A G E S   O V E R  500000 S T E P S

 NSTEP =   500000   TIME(PS) =    1020.000  TEMP(K) =   298.40  PRESS =     0.0
 Etot   =    -15503.7881  EKtot   =      3528.1604  EPtot      =    -19031.9485
 BOND   =        18.5401  ANGLE   =        20.3009  DIHED      =        17.1201
 1-4 NB =        14.7282  1-4 EEL =      -639.9940  VDWAALS    =      2787.0496
 EELEC  =    -21249.6935  EHBOND  =         0.0000  RESTRAINT  =         0.0000
 EKCMT  =         0.0000  VIRIAL  =         0.0000  VOLUME     =     60010.2129
                                                    Density    =         0.9904
 DV/DL  =        78.3035
 ------------------------------------------------------------------------------

      R M S  F L U C T U A T I O N S

 NSTEP =   500000   TIME(PS) =    1020.000  TEMP(K) =     4.91  PRESS =     0.0
 Etot   =       151.9736  EKtot   =        58.0983  EPtot      =       114.8484
 BOND   =         3.8664  ANGLE   =         3.5942  DIHED      =         3.4910
 1-4 NB =         1.4426  1-4 EEL =         4.3255  VDWAALS    =        81.0324
 EELEC  =       173.7086  EHBOND  =         0.0000  RESTRAINT  =         0.0000
 EKCMT  =         0.0000  VIRIAL  =         0.0000  VOLUME     =       376.2828
                                                    Density    =         0.0062
 DV/DL  =        13.7245
 ------------------------------------------------------------------------------

      DV/DL, AVERAGES OVER  500000 STEPS

 NSTEP =   500000   TIME(PS) =    1020.000  TEMP(K) =     4.91  PRESS =     0.0
 Etot   =         0.0000  EKtot   =         0.0000  EPtot      =        77.5186
 BOND   =         0.0000  ANGLE   =         0.0000  DIHED      =         0.0000
 1-4 NB =         0.0000  1-4 EEL =         0.0000  VDWAALS    =        -0.3361
 EELEC  =         0.0000  EHBOND  =         0.0000  RESTRAINT  =         0.0000
 EKCMT  =         0.0000  VIRIAL  =         0.0000  VOLUME     =         0.0000
                                                    Density    =         0.0000
 DV/DL  =        77.5186
 ------------------------------------------------------------------------------
