-------------------------------------------------------
          Amber 16 PMEMD                              2016
          -------------------------------------------------------

  [-O]verwriting output

File Assignments:

 Here is the input file:

TI/FEP, NpT, recharge transformation
 &cntrl
 ! please adjust namelist parameters to your needs!

 ! parameters for general MD
 imin = 0, nstlim = 500000, irest = 1, ntx = 5, dt = 0.002,
 ntt = 3, temp0 = 298.0, gamma_ln = 2.0, ig = -1,
 ntb = 2,
 ntp = 1, barostat = 2, pres0 = 1.01325, taup = 2.0,
 ntwe = 100, ntwx = 10000, ntpr = 1000, ntwr = 50000, ntave = 50000,
 ioutfm = 1, iwrap = 1, ntxo = 2,

 ! parameters for alchemical free energy simulation
 ntc = 2, ntf = 1,
 noshakemask = ':1,2',

 icfe = 1, ifsc = 0, clambda = 0.50, scalpha = 0.5, scbeta = 12.0,
 ifmbar = 1, mbar_lambda = 0.00 0.25 0.50 0.75 1.00,
 mbar_states = 5, bar_intervall = 1000,   ! ntpr = bar_intervall for alchemical

 timask1=':1', timask2=':2',
scmask1='',
scmask2='',
 crgmask = ':1@Cl18',
 /
 &ewald
 /

Note: ig = -1. Setting random seed to   161273 based on wallclock time in
      microseconds.

--------------------------------------------------------------------------------
   1.  RESOURCE   USE:
--------------------------------------------------------------------------------

 getting box info from netcdf restart file
 NATOM  =   46594 NTYPES =      28 NBONH =   43474 MBONA  =    3195
 NTHETH =    6825 MTHETA =    4355 NPHIH =   13976 MPHIA  =   13706
 NHPARM =       0 NPARM  =       0 NNB   =   87745 NRES   =   13889
 NBONA  =    3195 NTHETA =    4355 NPHIA =   13706 NUMBND =      89
 NUMANG =     195 NPTRA  =     203 NATYP =      50 NPHB   =       1
 IFBOX  =       1 NMXRS  =      43 IFCAP =       0 NEXTRA =       0
 NCOPY  =       0

     BOX TYPE: RECTILINEAR

--------------------------------------------------------------------------------
   2.  CONTROL  DATA  FOR  THE  RUN
--------------------------------------------------------------------------------

L1

General flags:
     imin    =       0, nmropt  =       0

Nature and format of input:
     ntx     =       5, irest   =       1, ntrx    =       1

Nature and format of output:
     ntxo    =       2, ntpr    =    1000, ntrx    =       1, ntwr    =   50000
     iwrap   =       1, ntwx    =   10000, ntwv    =       0, ntwe    =     100
     ioutfm  =       1, ntwprt  =       0, idecomp =       0, rbornstat=      0

Potential function:
     ntf     =       1, ntb     =       2, igb     =       0, nsnb    =      25
     ipol    =       0, gbsa    =       0, iesp    =       0
     dielc   =   1.00000, cut     =   8.00000, intdiel =   1.00000

Frozen or restrained atoms:
     ibelly  =       0, ntr     =       0

Molecular dynamics:
     nstlim  =    500000, nscm    =      1000, nrespa  =         1
     t       =   0.00000, dt      =   0.00200, vlimit  =  -1.00000

Langevin dynamics temperature regulation:
     ig      =  161273
     temp0   = 298.00000, tempi   =   0.00000, gamma_ln=   2.00000

Pressure regulation:
     ntp     =       1
     pres0   =   1.01325, comp    =  44.60000, taup    =   2.00000
     Monte-Carlo Barostat:
     mcbarint  =     100

SHAKE:
     ntc     =       2, jfastw  =       0
     tol     =   0.00001

Free energy options:
     icfe    =       1, ifsc    =       0, klambda =       1
     clambda =  0.5000, scalpha =  0.5000, scbeta  = 12.0000
     sceeorder =       2
     dynlmb =  0.0000 logdvdl =       0

FEP MBAR options:
     ifmbar  =       1,  bar_intervall =     1000
     mbar_states =       5

Ewald parameters:
     verbose =       0, ew_type =       0, nbflag  =       1, use_pme =       1
     vdwmeth =       1, eedmeth =       1, netfrc  =       1
     Box X =   87.894   Box Y =   67.207   Box Z =   78.608
     Alpha =   90.000   Beta  =   90.000   Gamma =   90.000
     NFFT1 =   96       NFFT2 =   64       NFFT3 =   80
     Cutoff=    8.000   Tol   =0.100E-04
     Ewald Coefficient =  0.34864
     Interpolation order =    4
     TI Mask 1 :1; matches     43 atoms
     TI Mask 2 :2; matches     43 atoms
     TI region 1:   46551 atoms
     TI region 2:   46551 atoms
Removing charge of      -0.0609 from atom      43
Total charge of  -0.06094600 removed from       1 atoms

    MBAR - lambda values considered:
       5 total:  0.0000 0.2500 0.5000 0.7500 1.0000
    Extra energies will be computed    500 times.
     Checking for mismatched coordinates.
 Noshake mask :1,2; matches      86 atoms.

--------------------------------------------------------------------------------
   3.  ATOMIC COORDINATES AND VELOCITIES
--------------------------------------------------------------------------------

L1
 begin time read from input coords =    20.000 ps

 Number of triangulated 3-point waters found:    13488
   Removing shake constraints from C23   L1    1 -- H41   L1    1
   Removing shake constraints from C23   L1    1 -- H42   L1    1
   Removing shake constraints from C22   L1    1 -- H39   L1    1
   Removing shake constraints from C22   L1    1 -- H40   L1    1
   Removing shake constraints from C21   L1    1 -- H38   L1    1
   Removing shake constraints from C20   L1    1 -- H37   L1    1
   Removing shake constraints from C13   L1    1 -- H34   L1    1
   Removing shake constraints from C16   L1    1 -- H35   L1    1
   Removing shake constraints from C19   L1    1 -- H36   L1    1
   Removing shake constraints from C10   L1    1 -- H33   L1    1
   Removing shake constraints from C9    L1    1 -- H32   L1    1
   Removing shake constraints from C8    L1    1 -- H31   L1    1
   Removing shake constraints from N5    L1    1 -- H30   L1    1
   Removing shake constraints from N4    L1    1 -- H43   L1    1
   Removing shake constraints from N4    L1    1 -- H29   L1    1
   Removing shake constraints from C1    L1    1 -- H26   L1    1
   Removing shake constraints from C1    L1    1 -- H27   L1    1
   Removing shake constraints from C1    L1    1 -- H28   L1    1
   Removing shake constraints from C23   L1    2 -- H41   L1    2
   Removing shake constraints from C23   L1    2 -- H42   L1    2
   Removing shake constraints from C22   L1    2 -- H39   L1    2
   Removing shake constraints from C22   L1    2 -- H40   L1    2
   Removing shake constraints from C21   L1    2 -- H38   L1    2
   Removing shake constraints from C20   L1    2 -- H37   L1    2
   Removing shake constraints from C13   L1    2 -- H34   L1    2
   Removing shake constraints from C16   L1    2 -- H35   L1    2
   Removing shake constraints from C19   L1    2 -- H36   L1    2
   Removing shake constraints from C10   L1    2 -- H33   L1    2
   Removing shake constraints from C9    L1    2 -- H32   L1    2
   Removing shake constraints from C8    L1    2 -- H31   L1    2
   Removing shake constraints from N5    L1    2 -- H30   L1    2
   Removing shake constraints from N4    L1    2 -- H43   L1    2
   Removing shake constraints from N4    L1    2 -- H29   L1    2
   Removing shake constraints from C1    L1    2 -- H26   L1    2
   Removing shake constraints from C1    L1    2 -- H27   L1    2
   Removing shake constraints from C1    L1    2 -- H28   L1    2
 Number of shake restraints removed:       36

     Sum of charges for TI region  1 =   0.06096676
     Assuming uniform neutralizing plasma

     Sum of charges for TI region  2 =   0.00002076
     Forcing neutrality...

--------------------------------------------------------------------------------
   4.  RESULTS
 NSTEP =     1000   TIME(PS) =      22.000  TEMP(K) =   283.93  PRESS =     0.0
 Etot   =   -117146.5360  EKtot   =     27148.8594  EPtot      =   -144295.3954
 BOND   =      1162.6173  ANGLE   =      3029.6309  DIHED      =      4855.0843
 1-4 NB =      1397.5250  1-4 EEL =     15937.9230  VDWAALS    =     17510.4427
 EELEC  =   -188188.6187  EHBOND  =         0.0000  RESTRAINT  =         0.0000
 EKCMT  =         0.0000  VIRIAL  =         0.0000  VOLUME     =    464342.7282
                                                    Density    =         1.0262
 DV/DL  =        -0.8081
 ------------------------------------------------------------------------------

      A V E R A G E S   O V E R   50000 S T E P S

 NSTEP =    50000   TIME(PS) =     120.000  TEMP(K) =   296.55  PRESS =     0.0
 Etot   =   -111644.1368  EKtot   =     28354.9267  EPtot      =   -139999.0635
 BOND   =      1186.3632  ANGLE   =      3062.0504  DIHED      =      4886.4201
 1-4 NB =      1411.9903  1-4 EEL =     15979.4068  VDWAALS    =     15747.0555
 EELEC  =   -182272.3499  EHBOND  =         0.0000  RESTRAINT  =         0.0000
 EKCMT  =         0.0000  VIRIAL  =         0.0000  VOLUME     =    462481.9348
                                                    Density    =         1.0303
 DV/DL  =        -1.9079
 ------------------------------------------------------------------------------

      R M S  F L U C T U A T I O N S

 NSTEP =    50000   TIME(PS) =     120.000  TEMP(K) =    10.35  PRESS =     0.0
 Etot   =      3093.7178  EKtot   =       989.3343  EPtot      =      2124.9257
 BOND   =        48.0371  ANGLE   =        97.7383  DIHED      =        33.7598
 1-4 NB =        16.4570  1-4 EEL =        42.1201  VDWAALS    =       880.6642
 EELEC  =      2841.3924  EHBOND  =         0.0000  RESTRAINT  =         0.0000
 EKCMT  =         0.0000  VIRIAL  =         0.0000  VOLUME     =       900.0590
                                                    Density    =         0.0020
 DV/DL  =         0.5047
 ------------------------------------------------------------------------------

      A V E R A G E S   O V E R   50000 S T E P S

 NSTEP =    50000   TIME(PS) =     120.000  TEMP(K) =   296.55  PRESS =     0.0
 Etot   =   -111644.1368  EKtot   =     28354.9267  EPtot      =   -139999.0635
 BOND   =      1186.3632  ANGLE   =      3062.0504  DIHED      =      4886.4201
 1-4 NB =      1411.9903  1-4 EEL =     15979.4068  VDWAALS    =     15747.0555
 EELEC  =   -182272.3499  EHBOND  =         0.0000  RESTRAINT  =         0.0000
 EKCMT  =         0.0000  VIRIAL  =         0.0000  VOLUME     =    462481.9348
                                                    Density    =         1.0303
 DV/DL  =        -1.9079
 ------------------------------------------------------------------------------

      R M S  F L U C T U A T I O N S

 NSTEP =    50000   TIME(PS) =     120.000  TEMP(K) =    10.35  PRESS =     0.0
 Etot   =      3093.7178  EKtot   =       989.3343  EPtot      =      2124.9257
 BOND   =        48.0371  ANGLE   =        97.7383  DIHED      =        33.7598
 1-4 NB =        16.4570  1-4 EEL =        42.1201  VDWAALS    =       880.6642
 EELEC  =      2841.3924  EHBOND  =         0.0000  RESTRAINT  =         0.0000
 EKCMT  =         0.0000  VIRIAL  =         0.0000  VOLUME     =       900.0590
                                                    Density    =         0.0020
 DV/DL  =         0.5047
 ------------------------------------------------------------------------------

      DV/DL, AVERAGES OVER   50000 STEPS

 NSTEP =    50000   TIME(PS) =     120.000  TEMP(K) =    10.35  PRESS =     0.0
 Etot   =         0.0000  EKtot   =         0.0000  EPtot      =        -1.8888
 BOND   =         0.0000  ANGLE   =         0.0000  DIHED      =         0.0000
 1-4 NB =         0.0000  1-4 EEL =         0.0000  VDWAALS    =         0.0000
 EELEC  =        -0.2426  EHBOND  =         0.0000  RESTRAINT  =         0.0000
 EKCMT  =         0.0000  VIRIAL  =         0.0000  VOLUME     =         0.0000
                                                    Density    =         0.0000
 DV/DL  =        -1.8888
 ------------------------------------------------------------------------------

      A V E R A G E S   O V E R   50000 S T E P S

 NSTEP =   100000   TIME(PS) =     220.000  TEMP(K) =   298.08  PRESS =     0.0
 Etot   =   -111171.4371  EKtot   =     28501.8538  EPtot      =   -139673.2910
 BOND   =      1192.0940  ANGLE   =      3070.6223  DIHED      =      4888.6142
 1-4 NB =      1414.7637  1-4 EEL =     15965.8647  VDWAALS    =     15580.6761
 EELEC  =   -181785.9258  EHBOND  =         0.0000  RESTRAINT  =         0.0000
 EKCMT  =         0.0000  VIRIAL  =         0.0000  VOLUME     =    462495.8766
                                                    Density    =         1.0303
 DV/DL  =        -1.8576
 ------------------------------------------------------------------------------

      R M S  F L U C T U A T I O N S

 NSTEP =   100000   TIME(PS) =     220.000  TEMP(K) =     1.35  PRESS =     0.0
 Etot   =       209.7051  EKtot   =       128.6080  EPtot      =       172.5931
 BOND   =        29.2504  ANGLE   =        42.4380  DIHED      =        23.5107
 1-4 NB =        15.2892  1-4 EEL =        42.6275  VDWAALS    =       185.2569
 EELEC  =       282.7429  EHBOND  =         0.0000  RESTRAINT  =         0.0000
 EKCMT  =         0.0000  VIRIAL  =         0.0000  VOLUME     =       761.5745
                                                    Density    =         0.0017
 DV/DL  =         0.5096
 ------------------------------------------------------------------------------

      A V E R A G E S   O V E R   50000 S T E P S

 NSTEP =   100000   TIME(PS) =     220.000  TEMP(K) =   298.08  PRESS =     0.0
 Etot   =   -111171.4371  EKtot   =     28501.8538  EPtot      =   -139673.2910
 BOND   =      1192.0940  ANGLE   =      3070.6223  DIHED      =      4888.6142
 1-4 NB =      1414.7637  1-4 EEL =     15965.8647  VDWAALS    =     15580.6761
 EELEC  =   -181785.9258  EHBOND  =         0.0000  RESTRAINT  =         0.0000
 EKCMT  =         0.0000  VIRIAL  =         0.0000  VOLUME     =    462495.8766
                                                    Density    =         1.0303
 DV/DL  =        -1.8576
 ------------------------------------------------------------------------------

      R M S  F L U C T U A T I O N S

 NSTEP =   100000   TIME(PS) =     220.000  TEMP(K) =     1.35  PRESS =     0.0
 Etot   =       209.7051  EKtot   =       128.6080  EPtot      =       172.5931
 BOND   =        29.2504  ANGLE   =        42.4380  DIHED      =        23.5107
 1-4 NB =        15.2892  1-4 EEL =        42.6275  VDWAALS    =       185.2569
 EELEC  =       282.7429  EHBOND  =         0.0000  RESTRAINT  =         0.0000
 EKCMT  =         0.0000  VIRIAL  =         0.0000  VOLUME     =       761.5745
                                                    Density    =         0.0017
 DV/DL  =         0.5096
 ------------------------------------------------------------------------------

      DV/DL, AVERAGES OVER   50000 STEPS

 NSTEP =   100000   TIME(PS) =     220.000  TEMP(K) =     1.35  PRESS =     0.0
 Etot   =         0.0000  EKtot   =         0.0000  EPtot      =        -1.8391
 BOND   =         0.0000  ANGLE   =         0.0000  DIHED      =         0.0000
 1-4 NB =         0.0000  1-4 EEL =         0.0000  VDWAALS    =         0.0000
 EELEC  =        -0.2426  EHBOND  =         0.0000  RESTRAINT  =         0.0000
 EKCMT  =         0.0000  VIRIAL  =         0.0000  VOLUME     =         0.0000
                                                    Density    =         0.0000
 DV/DL  =        -1.8391
 ------------------------------------------------------------------------------

      A V E R A G E S   O V E R   50000 S T E P S

 NSTEP =   500000   TIME(PS) =    1020.000  TEMP(K) =   297.99  PRESS =     0.0
 Etot   =   -111145.7786  EKtot   =     28492.8725  EPtot      =   -139638.6511
 BOND   =      1188.5963  ANGLE   =      3068.4150  DIHED      =      4883.0698
 1-4 NB =      1413.3820  1-4 EEL =     15971.4389  VDWAALS    =     15583.7198
 EELEC  =   -181747.2729  EHBOND  =         0.0000  RESTRAINT  =         0.0000
 EKCMT  =         0.0000  VIRIAL  =         0.0000  VOLUME     =    463186.9246
                                                    Density    =         1.0288
 DV/DL  =        -1.9441
 ------------------------------------------------------------------------------

      R M S  F L U C T U A T I O N S

 NSTEP =   500000   TIME(PS) =    1020.000  TEMP(K) =     1.34  PRESS =     0.0
 Etot   =       233.8228  EKtot   =       128.0276  EPtot      =       199.3232
 BOND   =        29.1070  ANGLE   =        42.3579  DIHED      =        24.1889
 1-4 NB =        15.0857  1-4 EEL =        41.9525  VDWAALS    =       194.5998
 EELEC  =       318.0738  EHBOND  =         0.0000  RESTRAINT  =         0.0000
 EKCMT  =         0.0000  VIRIAL  =         0.0000  VOLUME     =      1357.8268
                                                    Density    =         0.0030
 DV/DL  =         0.5115
 ------------------------------------------------------------------------------

      A V E R A G E S   O V E R   50000 S T E P S

 NSTEP =   500000   TIME(PS) =    1020.000  TEMP(K) =   297.99  PRESS =     0.0
 Etot   =   -111145.7786  EKtot   =     28492.8725  EPtot      =   -139638.6511
 BOND   =      1188.5963  ANGLE   =      3068.4150  DIHED      =      4883.0698
 1-4 NB =      1413.3820  1-4 EEL =     15971.4389  VDWAALS    =     15583.7198
 EELEC  =   -181747.2729  EHBOND  =         0.0000  RESTRAINT  =         0.0000
 EKCMT  =         0.0000  VIRIAL  =         0.0000  VOLUME     =    463186.9246
                                                    Density    =         1.0288
 DV/DL  =        -1.9441
 ------------------------------------------------------------------------------

      R M S  F L U C T U A T I O N S

 NSTEP =   500000   TIME(PS) =    1020.000  TEMP(K) =     1.34  PRESS =     0.0
 Etot   =       233.8228  EKtot   =       128.0276  EPtot      =       199.3232
 BOND   =        29.1070  ANGLE   =        42.3579  DIHED      =        24.1889
 1-4 NB =        15.0857  1-4 EEL =        41.9525  VDWAALS    =       194.5998
 EELEC  =       318.0738  EHBOND  =         0.0000  RESTRAINT  =         0.0000
 EKCMT  =         0.0000  VIRIAL  =         0.0000  VOLUME     =      1357.8268
                                                    Density    =         0.0030
 DV/DL  =         0.5115
 ------------------------------------------------------------------------------

      DV/DL, AVERAGES OVER   50000 STEPS

 NSTEP =   500000   TIME(PS) =    1020.000  TEMP(K) =     1.34  PRESS =     0.0
 Etot   =         0.0000  EKtot   =         0.0000  EPtot      =        -1.9246
 BOND   =         0.0000  ANGLE   =         0.0000  DIHED      =         0.0000
 1-4 NB =         0.0000  1-4 EEL =         0.0000  VDWAALS    =         0.0000
 EELEC  =        -0.2426  EHBOND  =         0.0000  RESTRAINT  =         0.0000
 EKCMT  =         0.0000  VIRIAL  =         0.0000  VOLUME     =         0.0000
                                                    Density    =         0.0000
 DV/DL  =        -1.9246
 ------------------------------------------------------------------------------

      A V E R A G E S   O V E R  500000 S T E P S

 NSTEP =   500000   TIME(PS) =    1020.000  TEMP(K) =   297.82  PRESS =     0.0
 Etot   =   -111252.0111  EKtot   =     28476.7199  EPtot      =   -139728.7310
 BOND   =      1189.4427  ANGLE   =      3066.3839  DIHED      =      4887.3614
 1-4 NB =      1413.2700  1-4 EEL =     15959.7423  VDWAALS    =     15620.2489
 EELEC  =   -181865.1802  EHBOND  =         0.0000  RESTRAINT  =         0.0000
 EKCMT  =         0.0000  VIRIAL  =         0.0000  VOLUME     =    462510.0155
                                                    Density    =         1.0303
 DV/DL  =        -1.8297
 ------------------------------------------------------------------------------

      R M S  F L U C T U A T I O N S

 NSTEP =   500000   TIME(PS) =    1020.000  TEMP(K) =     3.54  PRESS =     0.0
 Etot   =      1009.3410  EKtot   =       338.1331  EPtot      =       700.5012
 BOND   =        31.3504  ANGLE   =        50.6073  DIHED      =        25.6978
 1-4 NB =        15.4960  1-4 EEL =        45.5437  VDWAALS    =       332.3617
 EELEC  =       951.0202  EHBOND  =         0.0000  RESTRAINT  =         0.0000
 EKCMT  =         0.0000  VIRIAL  =         0.0000  VOLUME     =      1045.2823
                                                    Density    =         0.0023
 DV/DL  =         0.5096
 ------------------------------------------------------------------------------

      A V E R A G E S   O V E R  500000 S T E P S

 NSTEP =   500000   TIME(PS) =    1020.000  TEMP(K) =   297.82  PRESS =     0.0
 Etot   =   -111252.0111  EKtot   =     28476.7199  EPtot      =   -139728.7310
 BOND   =      1189.4427  ANGLE   =      3066.3839  DIHED      =      4887.3614
 1-4 NB =      1413.2700  1-4 EEL =     15959.7423  VDWAALS    =     15620.2489
 EELEC  =   -181865.1802  EHBOND  =         0.0000  RESTRAINT  =         0.0000
 EKCMT  =         0.0000  VIRIAL  =         0.0000  VOLUME     =    462510.0155
                                                    Density    =         1.0303
 DV/DL  =        -1.8297
 ------------------------------------------------------------------------------

      R M S  F L U C T U A T I O N S

 NSTEP =   500000   TIME(PS) =    1020.000  TEMP(K) =     3.54  PRESS =     0.0
 Etot   =      1009.3410  EKtot   =       338.1331  EPtot      =       700.5012
 BOND   =        31.3504  ANGLE   =        50.6073  DIHED      =        25.6978
 1-4 NB =        15.4960  1-4 EEL =        45.5437  VDWAALS    =       332.3617
 EELEC  =       951.0202  EHBOND  =         0.0000  RESTRAINT  =         0.0000
 EKCMT  =         0.0000  VIRIAL  =         0.0000  VOLUME     =      1045.2823
                                                    Density    =         0.0023
 DV/DL  =         0.5096
 ------------------------------------------------------------------------------

      DV/DL, AVERAGES OVER  500000 STEPS

 NSTEP =   500000   TIME(PS) =    1020.000  TEMP(K) =     3.54  PRESS =     0.0
 Etot   =         0.0000  EKtot   =         0.0000  EPtot      =        -1.8114
 BOND   =         0.0000  ANGLE   =         0.0000  DIHED      =         0.0000
 1-4 NB =         0.0000  1-4 EEL =         0.0000  VDWAALS    =         0.0000
 EELEC  =        -0.2426  EHBOND  =         0.0000  RESTRAINT  =         0.0000
 EKCMT  =         0.0000  VIRIAL  =         0.0000  VOLUME     =         0.0000
                                                    Density    =         0.0000
 DV/DL  =        -1.8114
 ------------------------------------------------------------------------------
