-------------------------------------------------------
          Amber 16 PMEMD                              2016
          -------------------------------------------------------

  [-O]verwriting output

File Assignments:

 Here is the input file:

TI/FEP, NpT, vdW+bonded transformation
 &cntrl
 ! please adjust namelist parameters to your needs!

 ! parameters for general MD
 imin = 0, nstlim = 500000, irest = 1, ntx = 5, dt = 0.002,
 ntt = 3, temp0 = 298.0, gamma_ln = 2.0, ig = -1,
 ntb = 2,
 ntp = 1, barostat = 2, pres0 = 1.01325, taup = 2.0,
 ntwe = 1000, ntwx = 10000, ntpr = 1000, ntwr = 50000, ntave = 50000,
 ioutfm = 1, iwrap = 1, ntxo = 2,

 ! parameters for alchemical free energy simulation
 ntc = 2, ntf = 1,
 noshakemask = ':1,2',

 icfe = 1, ifsc = 1, clambda = 0.56262, scalpha = 0.5, scbeta = 12.0,
 ifmbar = 0, bar_intervall = 500, bar_l_min = 0.0, bar_l_max = 1.0,
 bar_l_incr = 0.1,   ! ntpr = bar_intervall for alchemical analysis tool

 timask1=':1', timask2=':2',
scmask1='',
scmask2=':2@C28,O29,C30,H50,H51,H52,H53',
 crgmask = '',
 /
 &ewald
 /

Note: ig = -1. Setting random seed to    26345 based on wallclock time in
      microseconds.

--------------------------------------------------------------------------------
   1.  RESOURCE   USE:
--------------------------------------------------------------------------------

 getting box info from netcdf restart file
 NATOM  =    5979 NTYPES =      16 NBONH =    5922 MBONA  =      59
 NTHETH =      86 MTHETA =      80 NPHIH =     132 MPHIA  =     124
 NHPARM =       0 NPARM  =       0 NNB   =    8319 NRES   =    1962
 NBONA  =      59 NTHETA =      80 NPHIA =     124 NUMBND =      21
 NUMANG =      31 NPTRA  =      21 NATYP =      17 NPHB   =       1
 IFBOX  =       1 NMXRS  =      53 IFCAP =       0 NEXTRA =       0
 NCOPY  =       0

     BOX TYPE: RECTILINEAR

--------------------------------------------------------------------------------
   2.  CONTROL  DATA  FOR  THE  RUN
--------------------------------------------------------------------------------

L0

General flags:
     imin    =       0, nmropt  =       0

Nature and format of input:
     ntx     =       5, irest   =       1, ntrx    =       1

Nature and format of output:
     ntxo    =       2, ntpr    =    1000, ntrx    =       1, ntwr    =   50000
     iwrap   =       1, ntwx    =   10000, ntwv    =       0, ntwe    =    1000
     ioutfm  =       1, ntwprt  =       0, idecomp =       0, rbornstat=      0

Potential function:
     ntf     =       1, ntb     =       2, igb     =       0, nsnb    =      25
     ipol    =       0, gbsa    =       0, iesp    =       0
     dielc   =   1.00000, cut     =   8.00000, intdiel =   1.00000

Frozen or restrained atoms:
     ibelly  =       0, ntr     =       0

Molecular dynamics:
     nstlim  =    500000, nscm    =      1000, nrespa  =         1
     t       =   0.00000, dt      =   0.00200, vlimit  =  -1.00000

Langevin dynamics temperature regulation:
     ig      =   26345
     temp0   = 298.00000, tempi   =   0.00000, gamma_ln=   2.00000

Pressure regulation:
     ntp     =       1
     pres0   =   1.01325, comp    =  44.60000, taup    =   2.00000
     Monte-Carlo Barostat:
     mcbarint  =     100

SHAKE:
     ntc     =       2, jfastw  =       0
     tol     =   0.00001

Free energy options:
     icfe    =       1, ifsc    =       1, klambda =       1
     clambda =  0.5626, scalpha =  0.5000, scbeta  = 12.0000
     sceeorder =       2
     dynlmb =  0.0000 logdvdl =       0

Ewald parameters:
     verbose =       0, ew_type =       0, nbflag  =       1, use_pme =       1
     vdwmeth =       1, eedmeth =       1, netfrc  =       1
     Box X =   40.877   Box Y =   43.011   Box Z =   34.124
     Alpha =   90.000   Beta  =   90.000   Gamma =   90.000
     NFFT1 =   48       NFFT2 =   48       NFFT3 =   36
     Cutoff=    8.000   Tol   =0.100E-04
     Ewald Coefficient =  0.34864
     Interpolation order =    4
     TI Mask 1 :1; matches     46 atoms
     TI Mask 2 :2; matches     53 atoms
     TI region 1:    5926 atoms
     TI region 2:    5933 atoms
     SC Mask 2 :2@C28,O29,C30,H50,H51,H52,H53; matches      7 atoms
 Noshake mask :1,2; matches      99 atoms.

--------------------------------------------------------------------------------
   3.  ATOMIC COORDINATES AND VELOCITIES
--------------------------------------------------------------------------------

L0
 begin time read from input coords =    20.000 ps

     Molecule     1 is partially softcore
     Molecule     2 is partially softcore
 Number of triangulated 3-point waters found:     1960
   Removing shake constraints from C27   L0    1 -- H44   L0    1
   Removing shake constraints from C27   L0    1 -- H45   L0    1
   Removing shake constraints from C27   L0    1 -- H46   L0    1
   Removing shake constraints from C25   L0    1 -- H43   L0    1
   Removing shake constraints from C21   L0    1 -- H42   L0    1
   Removing shake constraints from C20   L0    1 -- H39   L0    1
   Removing shake constraints from C20   L0    1 -- H40   L0    1
   Removing shake constraints from C20   L0    1 -- H41   L0    1
   Removing shake constraints from C16   L0    1 -- H37   L0    1
   Removing shake constraints from C16   L0    1 -- H38   L0    1
   Removing shake constraints from N13   L0    1 -- H36   L0    1
   Removing shake constraints from N9    L0    1 -- H35   L0    1
   Removing shake constraints from N9    L0    1 -- H34   L0    1
   Removing shake constraints from C7    L0    1 -- H33   L0    1
   Removing shake constraints from C2    L0    1 -- H31   L0    1
   Removing shake constraints from C2    L0    1 -- H32   L0    1
   Removing shake constraints from C1    L0    1 -- H28   L0    1
   Removing shake constraints from C1    L0    1 -- H29   L0    1
   Removing shake constraints from C1    L0    1 -- H30   L0    1
   Removing shake constraints from C30   INT   2 -- H52   INT   2
   Removing shake constraints from C30   INT   2 -- H53   INT   2
   Removing shake constraints from C30   INT   2 -- H51   INT   2
   Removing shake constraints from C26   INT   2 -- H47   INT   2
   Removing shake constraints from C26   INT   2 -- H48   INT   2
   Removing shake constraints from C26   INT   2 -- H49   INT   2
   Removing shake constraints from C24   INT   2 -- H46   INT   2
   Removing shake constraints from N27   INT   2 -- H50   INT   2
   Removing shake constraints from C21   INT   2 -- H45   INT   2
   Removing shake constraints from C20   INT   2 -- H42   INT   2
   Removing shake constraints from C20   INT   2 -- H43   INT   2
   Removing shake constraints from C20   INT   2 -- H44   INT   2
   Removing shake constraints from C16   INT   2 -- H40   INT   2
   Removing shake constraints from C16   INT   2 -- H41   INT   2
   Removing shake constraints from N13   INT   2 -- H39   INT   2
   Removing shake constraints from N9    INT   2 -- H38   INT   2
   Removing shake constraints from N9    INT   2 -- H37   INT   2
   Removing shake constraints from C7    INT   2 -- H36   INT   2
   Removing shake constraints from C2    INT   2 -- H34   INT   2
   Removing shake constraints from C2    INT   2 -- H35   INT   2
   Removing shake constraints from C1    INT   2 -- H31   INT   2
   Removing shake constraints from C1    INT   2 -- H32   INT   2
   Removing shake constraints from C1    INT   2 -- H33   INT   2
 WARNING: SHAKEn bond for atoms       69       96 is partially softcore.
 Coordinates for common atoms will be synchronized from V0.
 Consider using noshake mask or disabling SHAKE.

 Number of shake restraints removed in TI region  1 :       19
 Number of shake restraints removed in TI region  2 :       23

     Sum of charges for TI region  1 =   0.00001100
     Forcing neutrality...

     Sum of charges for TI region  2 =   0.00001100
     Forcing neutrality...

--------------------------------------------------------------------------------
   4.  RESULTS
 NSTEP =     1000   TIME(PS) =      22.000  TEMP(K) =   285.64  PRESS =     0.0
 Etot   =    -16249.5864  EKtot   =      3371.3462  EPtot      =    -19620.9326
 BOND   =        24.3546  ANGLE   =        19.7060  DIHED      =        17.1427
 1-4 NB =        14.5839  1-4 EEL =      -643.2214  VDWAALS    =      3134.5756
 EELEC  =    -22188.0739  EHBOND  =         0.0000  RESTRAINT  =         0.0000
 EKCMT  =         0.0000  VIRIAL  =         0.0000  VOLUME     =     61150.9387
                                                    Density    =         0.9707
 DV/DL  =       -11.6353
 ------------------------------------------------------------------------------

      A V E R A G E S   O V E R   50000 S T E P S

 NSTEP =    50000   TIME(PS) =     120.000  TEMP(K) =   297.25  PRESS =     0.0
 Etot   =    -15542.7311  EKtot   =      3508.4190  EPtot      =    -19051.1501
 BOND   =        30.8735  ANGLE   =        20.1597  DIHED      =        16.8324
 1-4 NB =        15.1976  1-4 EEL =      -640.3144  VDWAALS    =      2798.9074
 EELEC  =    -21292.8064  EHBOND  =         0.0000  RESTRAINT  =         0.0000
 EKCMT  =         0.0000  VIRIAL  =         0.0000  VOLUME     =     60154.9100
                                                    Density    =         0.9868
 DV/DL  =       -10.2436
 ------------------------------------------------------------------------------

      R M S  F L U C T U A T I O N S

 NSTEP =    50000   TIME(PS) =     120.000  TEMP(K) =    10.09  PRESS =     0.0
 Etot   =       399.0629  EKtot   =       119.0619  EPtot      =       290.2729
 BOND   =         3.7836  ANGLE   =         3.5110  DIHED      =         3.0908
 1-4 NB =         1.3936  1-4 EEL =         4.1367  VDWAALS    =       145.7100
 EELEC  =       423.8191  EHBOND  =         0.0000  RESTRAINT  =         0.0000
 EKCMT  =         0.0000  VIRIAL  =         0.0000  VOLUME     =       359.6801
                                                    Density    =         0.0059
 DV/DL  =         8.7131
 ------------------------------------------------------------------------------

      A V E R A G E S   O V E R   50000 S T E P S

 NSTEP =    50000   TIME(PS) =     120.000  TEMP(K) =   297.19  PRESS =     0.0
 Etot   =    -15537.2409  EKtot   =      3513.9091  EPtot      =    -19051.1501
 BOND   =        30.8735  ANGLE   =        20.1597  DIHED      =        16.8324
 1-4 NB =        15.1976  1-4 EEL =      -640.3144  VDWAALS    =      2798.9074
 EELEC  =    -21292.8064  EHBOND  =         0.0000  RESTRAINT  =         0.0000
 EKCMT  =         0.0000  VIRIAL  =         0.0000  VOLUME     =     60154.9100
                                                    Density    =         0.9880
 DV/DL  =       -10.2436
 ------------------------------------------------------------------------------

      R M S  F L U C T U A T I O N S

 NSTEP =    50000   TIME(PS) =     120.000  TEMP(K) =    10.09  PRESS =     0.0
 Etot   =       399.2915  EKtot   =       119.2837  EPtot      =       290.2729
 BOND   =         3.7836  ANGLE   =         3.5110  DIHED      =         3.0908
 1-4 NB =         1.3936  1-4 EEL =         4.1367  VDWAALS    =       145.7100
 EELEC  =       423.8191  EHBOND  =         0.0000  RESTRAINT  =         0.0000
 EKCMT  =         0.0000  VIRIAL  =         0.0000  VOLUME     =       359.6801
                                                    Density    =         0.0059
 DV/DL  =         8.7131
 ------------------------------------------------------------------------------

      DV/DL, AVERAGES OVER   50000 STEPS

 NSTEP =    50000   TIME(PS) =     120.000  TEMP(K) =    10.09  PRESS =     0.0
 Etot   =         0.0000  EKtot   =         0.0000  EPtot      =       -10.1378
 BOND   =         0.0000  ANGLE   =         0.0000  DIHED      =         0.0000
 1-4 NB =         0.0000  1-4 EEL =         0.0000  VDWAALS    =        -0.3353
 EELEC  =         0.0000  EHBOND  =         0.0000  RESTRAINT  =         0.0000
 EKCMT  =         0.0000  VIRIAL  =         0.0000  VOLUME     =         0.0000
                                                    Density    =         0.0000
 DV/DL  =       -10.1378
 ------------------------------------------------------------------------------

      A V E R A G E S   O V E R   50000 S T E P S

 NSTEP =   100000   TIME(PS) =     220.000  TEMP(K) =   298.56  PRESS =     0.0
 Etot   =    -15485.8220  EKtot   =      3523.8539  EPtot      =    -19009.6759
 BOND   =        30.9022  ANGLE   =        20.4388  DIHED      =        17.3423
 1-4 NB =        15.2034  1-4 EEL =      -639.9091  VDWAALS    =      2782.5100
 EELEC  =    -21236.1634  EHBOND  =         0.0000  RESTRAINT  =         0.0000
 EKCMT  =         0.0000  VIRIAL  =         0.0000  VOLUME     =     60030.9243
                                                    Density    =         0.9889
 DV/DL  =        -9.7689
 ------------------------------------------------------------------------------

      R M S  F L U C T U A T I O N S

 NSTEP =   100000   TIME(PS) =     220.000  TEMP(K) =     3.81  PRESS =     0.0
 Etot   =        82.0514  EKtot   =        44.9676  EPtot      =        68.6662
 BOND   =         3.8344  ANGLE   =         3.6690  DIHED      =         3.6115
 1-4 NB =         1.4581  1-4 EEL =         4.3158  VDWAALS    =        71.1533
 EELEC  =       114.5660  EHBOND  =         0.0000  RESTRAINT  =         0.0000
 EKCMT  =         0.0000  VIRIAL  =         0.0000  VOLUME     =       399.0577
                                                    Density    =         0.0066
 DV/DL  =         8.6818
 ------------------------------------------------------------------------------

      A V E R A G E S   O V E R   50000 S T E P S

 NSTEP =   100000   TIME(PS) =     220.000  TEMP(K) =   298.49  PRESS =     0.0
 Etot   =    -15480.4344  EKtot   =      3529.2415  EPtot      =    -19009.6759
 BOND   =        30.9022  ANGLE   =        20.4388  DIHED      =        17.3423
 1-4 NB =        15.2034  1-4 EEL =      -639.9091  VDWAALS    =      2782.5100
 EELEC  =    -21236.1634  EHBOND  =         0.0000  RESTRAINT  =         0.0000
 EKCMT  =         0.0000  VIRIAL  =         0.0000  VOLUME     =     60030.9243
                                                    Density    =         0.9901
 DV/DL  =        -9.7689
 ------------------------------------------------------------------------------

      R M S  F L U C T U A T I O N S

 NSTEP =   100000   TIME(PS) =     220.000  TEMP(K) =     3.80  PRESS =     0.0
 Etot   =        81.9968  EKtot   =        44.9638  EPtot      =        68.6662
 BOND   =         3.8344  ANGLE   =         3.6690  DIHED      =         3.6115
 1-4 NB =         1.4581  1-4 EEL =         4.3158  VDWAALS    =        71.1533
 EELEC  =       114.5660  EHBOND  =         0.0000  RESTRAINT  =         0.0000
 EKCMT  =         0.0000  VIRIAL  =         0.0000  VOLUME     =       399.0577
                                                    Density    =         0.0066
 DV/DL  =         8.6818
 ------------------------------------------------------------------------------

      DV/DL, AVERAGES OVER   50000 STEPS

 NSTEP =   100000   TIME(PS) =     220.000  TEMP(K) =     3.80  PRESS =     0.0
 Etot   =         0.0000  EKtot   =         0.0000  EPtot      =        -9.6693
 BOND   =         0.0000  ANGLE   =         0.0000  DIHED      =         0.0000
 1-4 NB =         0.0000  1-4 EEL =         0.0000  VDWAALS    =        -0.3360
 EELEC  =         0.0000  EHBOND  =         0.0000  RESTRAINT  =         0.0000
 EKCMT  =         0.0000  VIRIAL  =         0.0000  VOLUME     =         0.0000
                                                    Density    =         0.0000
 DV/DL  =        -9.6693
 ------------------------------------------------------------------------------

      A V E R A G E S   O V E R   50000 S T E P S

 NSTEP =   500000   TIME(PS) =    1020.000  TEMP(K) =   298.59  PRESS =     0.0
 Etot   =    -15495.5910  EKtot   =      3524.1860  EPtot      =    -19019.7770
 BOND   =        30.7134  ANGLE   =        20.3322  DIHED      =        16.8411
 1-4 NB =        15.1675  1-4 EEL =      -640.0219  VDWAALS    =      2786.7338
 EELEC  =    -21249.5430  EHBOND  =         0.0000  RESTRAINT  =         0.0000
 EKCMT  =         0.0000  VIRIAL  =         0.0000  VOLUME     =     59948.5881
                                                    Density    =         0.9902
 DV/DL  =        -9.9504
 ------------------------------------------------------------------------------

      R M S  F L U C T U A T I O N S

 NSTEP =   500000   TIME(PS) =    1020.000  TEMP(K) =     3.87  PRESS =     0.0
 Etot   =        74.2310  EKtot   =        45.6305  EPtot      =        62.1240
 BOND   =         3.6899  ANGLE   =         3.6973  DIHED      =         3.5227
 1-4 NB =         1.4703  1-4 EEL =         4.2867  VDWAALS    =        69.6532
 EELEC  =       105.9013  EHBOND  =         0.0000  RESTRAINT  =         0.0000
 EKCMT  =         0.0000  VIRIAL  =         0.0000  VOLUME     =       398.0818
                                                    Density    =         0.0066
 DV/DL  =         8.6389
 ------------------------------------------------------------------------------

      A V E R A G E S   O V E R   50000 S T E P S

 NSTEP =   500000   TIME(PS) =    1020.000  TEMP(K) =   298.51  PRESS =     0.0
 Etot   =    -15490.2634  EKtot   =      3529.5135  EPtot      =    -19019.7770
 BOND   =        30.7134  ANGLE   =        20.3322  DIHED      =        16.8411
 1-4 NB =        15.1675  1-4 EEL =      -640.0219  VDWAALS    =      2786.7338
 EELEC  =    -21249.5430  EHBOND  =         0.0000  RESTRAINT  =         0.0000
 EKCMT  =         0.0000  VIRIAL  =         0.0000  VOLUME     =     59948.5881
                                                    Density    =         0.9914
 DV/DL  =        -9.9504
 ------------------------------------------------------------------------------

      R M S  F L U C T U A T I O N S

 NSTEP =   500000   TIME(PS) =    1020.000  TEMP(K) =     3.86  PRESS =     0.0
 Etot   =        74.1328  EKtot   =        45.5912  EPtot      =        62.1240
 BOND   =         3.6899  ANGLE   =         3.6973  DIHED      =         3.5227
 1-4 NB =         1.4703  1-4 EEL =         4.2867  VDWAALS    =        69.6532
 EELEC  =       105.9013  EHBOND  =         0.0000  RESTRAINT  =         0.0000
 EKCMT  =         0.0000  VIRIAL  =         0.0000  VOLUME     =       398.0818
                                                    Density    =         0.0066
 DV/DL  =         8.6389
 ------------------------------------------------------------------------------

      DV/DL, AVERAGES OVER   50000 STEPS

 NSTEP =   500000   TIME(PS) =    1020.000  TEMP(K) =     3.86  PRESS =     0.0
 Etot   =         0.0000  EKtot   =         0.0000  EPtot      =        -9.8484
 BOND   =         0.0000  ANGLE   =         0.0000  DIHED      =         0.0000
 1-4 NB =         0.0000  1-4 EEL =         0.0000  VDWAALS    =        -0.3365
 EELEC  =         0.0000  EHBOND  =         0.0000  RESTRAINT  =         0.0000
 EKCMT  =         0.0000  VIRIAL  =         0.0000  VOLUME     =         0.0000
                                                    Density    =         0.0000
 DV/DL  =        -9.8484
 ------------------------------------------------------------------------------

      A V E R A G E S   O V E R  500000 S T E P S

 NSTEP =   500000   TIME(PS) =    1020.000  TEMP(K) =   298.41  PRESS =     0.0
 Etot   =    -15496.4792  EKtot   =      3522.1030  EPtot      =    -19018.5822
 BOND   =        30.9458  ANGLE   =        20.2982  DIHED      =        17.0138
 1-4 NB =        15.2118  1-4 EEL =      -640.0363  VDWAALS    =      2786.2571
 EELEC  =    -21248.2726  EHBOND  =         0.0000  RESTRAINT  =         0.0000
 EKCMT  =         0.0000  VIRIAL  =         0.0000  VOLUME     =     60040.6275
                                                    Density    =         0.9887
 DV/DL  =       -10.2130
 ------------------------------------------------------------------------------

      R M S  F L U C T U A T I O N S

 NSTEP =   500000   TIME(PS) =    1020.000  TEMP(K) =     4.88  PRESS =     0.0
 Etot   =       150.7495  EKtot   =        57.6155  EPtot      =       114.3570
 BOND   =         3.8098  ANGLE   =         3.6399  DIHED      =         3.5720
 1-4 NB =         1.4487  1-4 EEL =         4.3154  VDWAALS    =        81.0357
 EELEC  =       173.5139  EHBOND  =         0.0000  RESTRAINT  =         0.0000
 EKCMT  =         0.0000  VIRIAL  =         0.0000  VOLUME     =       418.5443
                                                    Density    =         0.0069
 DV/DL  =         8.6461
 ------------------------------------------------------------------------------

      A V E R A G E S   O V E R  500000 S T E P S

 NSTEP =   500000   TIME(PS) =    1020.000  TEMP(K) =   298.35  PRESS =     0.0
 Etot   =    -15490.9716  EKtot   =      3527.6106  EPtot      =    -19018.5822
 BOND   =        30.9458  ANGLE   =        20.2982  DIHED      =        17.0138
 1-4 NB =        15.2118  1-4 EEL =      -640.0363  VDWAALS    =      2786.2571
 EELEC  =    -21248.2726  EHBOND  =         0.0000  RESTRAINT  =         0.0000
 EKCMT  =         0.0000  VIRIAL  =         0.0000  VOLUME     =     60040.6275
                                                    Density    =         0.9899
 DV/DL  =       -10.2130
 ------------------------------------------------------------------------------

      R M S  F L U C T U A T I O N S

 NSTEP =   500000   TIME(PS) =    1020.000  TEMP(K) =     4.88  PRESS =     0.0
 Etot   =       150.8093  EKtot   =        57.6796  EPtot      =       114.3570
 BOND   =         3.8098  ANGLE   =         3.6399  DIHED      =         3.5720
 1-4 NB =         1.4487  1-4 EEL =         4.3154  VDWAALS    =        81.0357
 EELEC  =       173.5139  EHBOND  =         0.0000  RESTRAINT  =         0.0000
 EKCMT  =         0.0000  VIRIAL  =         0.0000  VOLUME     =       418.5443
                                                    Density    =         0.0069
 DV/DL  =         8.6461
 ------------------------------------------------------------------------------

      DV/DL, AVERAGES OVER  500000 STEPS

 NSTEP =   500000   TIME(PS) =    1020.000  TEMP(K) =     4.88  PRESS =     0.0
 Etot   =         0.0000  EKtot   =         0.0000  EPtot      =       -10.1108
 BOND   =         0.0000  ANGLE   =         0.0000  DIHED      =         0.0000
 1-4 NB =         0.0000  1-4 EEL =         0.0000  VDWAALS    =        -0.3360
 EELEC  =         0.0000  EHBOND  =         0.0000  RESTRAINT  =         0.0000
 EKCMT  =         0.0000  VIRIAL  =         0.0000  VOLUME     =         0.0000
                                                    Density    =         0.0000
 DV/DL  =       -10.1108
 ------------------------------------------------------------------------------
