-------------------------------------------------------
          Amber 16 PMEMD                              2016
          -------------------------------------------------------

  [-O]verwriting output

File Assignments:

 Here is the input file:

TI/FEP, NpT, charge transformation
 &cntrl
 ! please adjust namelist parameters to your needs!

 ! parameters for general MD
 imin = 0, nstlim = 500000, irest = 1, ntx = 5, dt = 0.002,
 ntt = 3, temp0 = 298.0, gamma_ln = 2.0, ig = -1,
 ntb = 2,
 ntp = 1, barostat = 2, pres0 = 1.01325, taup = 2.0,
 ntwe = 1000, ntwx = 10000, ntpr = 1000, ntwr = 50000, ntave = 50000,
 ioutfm = 1, iwrap = 1, ntxo = 2,

 ! parameters for alchemical free energy simulation
 ntc = 2, ntf = 1,
 noshakemask = ':1,2',

 icfe = 1, ifsc = 0, clambda = 0.25, scalpha = 0.5, scbeta = 12.0,
 ifmbar = 0, bar_intervall = 500, bar_l_min = 0.0, bar_l_max = 1.0,
 bar_l_incr = 0.1,   ! ntpr = bar_intervall for alchemical analysis tool

 timask1=':1', timask2=':2',
scmask1='',
scmask2='',
 crgmask = '',
 /
 &ewald
 /

Note: ig = -1. Setting random seed to   888952 based on wallclock time in
      microseconds.

--------------------------------------------------------------------------------
   1.  RESOURCE   USE:
--------------------------------------------------------------------------------

 getting box info from netcdf restart file
 NATOM  =    5986 NTYPES =      15 NBONH =    5926 MBONA  =      62
 NTHETH =      94 MTHETA =      84 NPHIH =     149 MPHIA  =     130
 NHPARM =       0 NPARM  =       0 NNB   =    8354 NRES   =    1962
 NBONA  =      62 NTHETA =      84 NPHIA =     130 NUMBND =      20
 NUMANG =      30 NPTRA  =      21 NATYP =      16 NPHB   =       1
 IFBOX  =       1 NMXRS  =      53 IFCAP =       0 NEXTRA =       0
 NCOPY  =       0

     BOX TYPE: RECTILINEAR

--------------------------------------------------------------------------------
   2.  CONTROL  DATA  FOR  THE  RUN
--------------------------------------------------------------------------------

INT

General flags:
     imin    =       0, nmropt  =       0

Nature and format of input:
     ntx     =       5, irest   =       1, ntrx    =       1

Nature and format of output:
     ntxo    =       2, ntpr    =    1000, ntrx    =       1, ntwr    =   50000
     iwrap   =       1, ntwx    =   10000, ntwv    =       0, ntwe    =    1000
     ioutfm  =       1, ntwprt  =       0, idecomp =       0, rbornstat=      0

Potential function:
     ntf     =       1, ntb     =       2, igb     =       0, nsnb    =      25
     ipol    =       0, gbsa    =       0, iesp    =       0
     dielc   =   1.00000, cut     =   8.00000, intdiel =   1.00000

Frozen or restrained atoms:
     ibelly  =       0, ntr     =       0

Molecular dynamics:
     nstlim  =    500000, nscm    =      1000, nrespa  =         1
     t       =   0.00000, dt      =   0.00200, vlimit  =  -1.00000

Langevin dynamics temperature regulation:
     ig      =  888952
     temp0   = 298.00000, tempi   =   0.00000, gamma_ln=   2.00000

Pressure regulation:
     ntp     =       1
     pres0   =   1.01325, comp    =  44.60000, taup    =   2.00000
     Monte-Carlo Barostat:
     mcbarint  =     100

SHAKE:
     ntc     =       2, jfastw  =       0
     tol     =   0.00001

Free energy options:
     icfe    =       1, ifsc    =       0, klambda =       1
     clambda =  0.2500, scalpha =  0.5000, scbeta  = 12.0000
     sceeorder =       2
     dynlmb =  0.0000 logdvdl =       0

Ewald parameters:
     verbose =       0, ew_type =       0, nbflag  =       1, use_pme =       1
     vdwmeth =       1, eedmeth =       1, netfrc  =       1
     Box X =   40.877   Box Y =   43.011   Box Z =   34.124
     Alpha =   90.000   Beta  =   90.000   Gamma =   90.000
     NFFT1 =   48       NFFT2 =   48       NFFT3 =   36
     Cutoff=    8.000   Tol   =0.100E-04
     Ewald Coefficient =  0.34864
     Interpolation order =    4
     TI Mask 1 :1; matches     53 atoms
     TI Mask 2 :2; matches     53 atoms
     TI region 1:    5933 atoms
     TI region 2:    5933 atoms
     Checking for mismatched coordinates.
 Noshake mask :1,2; matches     106 atoms.

--------------------------------------------------------------------------------
   3.  ATOMIC COORDINATES AND VELOCITIES
--------------------------------------------------------------------------------

INT
 begin time read from input coords =    20.000 ps

 Number of triangulated 3-point waters found:     1960
   Removing shake constraints from C30   INT   1 -- H52   INT   1
   Removing shake constraints from C30   INT   1 -- H53   INT   1
   Removing shake constraints from C30   INT   1 -- H51   INT   1
   Removing shake constraints from C26   INT   1 -- H47   INT   1
   Removing shake constraints from C26   INT   1 -- H48   INT   1
   Removing shake constraints from C26   INT   1 -- H49   INT   1
   Removing shake constraints from C24   INT   1 -- H46   INT   1
   Removing shake constraints from N27   INT   1 -- H50   INT   1
   Removing shake constraints from C21   INT   1 -- H45   INT   1
   Removing shake constraints from C20   INT   1 -- H42   INT   1
   Removing shake constraints from C20   INT   1 -- H43   INT   1
   Removing shake constraints from C20   INT   1 -- H44   INT   1
   Removing shake constraints from C16   INT   1 -- H40   INT   1
   Removing shake constraints from C16   INT   1 -- H41   INT   1
   Removing shake constraints from N13   INT   1 -- H39   INT   1
   Removing shake constraints from N9    INT   1 -- H38   INT   1
   Removing shake constraints from N9    INT   1 -- H37   INT   1
   Removing shake constraints from C7    INT   1 -- H36   INT   1
   Removing shake constraints from C2    INT   1 -- H34   INT   1
   Removing shake constraints from C2    INT   1 -- H35   INT   1
   Removing shake constraints from C1    INT   1 -- H31   INT   1
   Removing shake constraints from C1    INT   1 -- H32   INT   1
   Removing shake constraints from C1    INT   1 -- H33   INT   1
   Removing shake constraints from C30   L1    2 -- H52   L1    2
   Removing shake constraints from C30   L1    2 -- H53   L1    2
   Removing shake constraints from C30   L1    2 -- H51   L1    2
   Removing shake constraints from C26   L1    2 -- H47   L1    2
   Removing shake constraints from C26   L1    2 -- H48   L1    2
   Removing shake constraints from C26   L1    2 -- H49   L1    2
   Removing shake constraints from C24   L1    2 -- H46   L1    2
   Removing shake constraints from N27   L1    2 -- H50   L1    2
   Removing shake constraints from C21   L1    2 -- H45   L1    2
   Removing shake constraints from C20   L1    2 -- H42   L1    2
   Removing shake constraints from C20   L1    2 -- H43   L1    2
   Removing shake constraints from C20   L1    2 -- H44   L1    2
   Removing shake constraints from C16   L1    2 -- H40   L1    2
   Removing shake constraints from C16   L1    2 -- H41   L1    2
   Removing shake constraints from N13   L1    2 -- H39   L1    2
   Removing shake constraints from N9    L1    2 -- H38   L1    2
   Removing shake constraints from N9    L1    2 -- H37   L1    2
   Removing shake constraints from C7    L1    2 -- H36   L1    2
   Removing shake constraints from C2    L1    2 -- H34   L1    2
   Removing shake constraints from C2    L1    2 -- H35   L1    2
   Removing shake constraints from C1    L1    2 -- H31   L1    2
   Removing shake constraints from C1    L1    2 -- H32   L1    2
   Removing shake constraints from C1    L1    2 -- H33   L1    2
 Number of shake restraints removed:       46

     Sum of charges for TI region  1 =   0.00001100
     Forcing neutrality...

     Sum of charges for TI region  2 =  -0.00001000
     Forcing neutrality...

--------------------------------------------------------------------------------
   4.  RESULTS
 NSTEP =     1000   TIME(PS) =      22.000  TEMP(K) =   277.13  PRESS =     0.0
 Etot   =    -16301.4165  EKtot   =      3288.2439  EPtot      =    -19589.6604
 BOND   =        18.0324  ANGLE   =        29.3317  DIHED      =        20.0151
 1-4 NB =        15.2352  1-4 EEL =      -645.1673  VDWAALS    =      3097.4758
 EELEC  =    -22124.5832  EHBOND  =         0.0000  RESTRAINT  =         0.0000
 EKCMT  =         0.0000  VIRIAL  =         0.0000  VOLUME     =     60158.7471
                                                    Density    =         0.9861
 DV/DL  =       -55.0646
 ------------------------------------------------------------------------------

      A V E R A G E S   O V E R   50000 S T E P S

 NSTEP =    50000   TIME(PS) =     120.000  TEMP(K) =   296.22  PRESS =     0.0
 Etot   =    -15546.3382  EKtot   =      3514.8044  EPtot      =    -19061.1426
 BOND   =        20.9498  ANGLE   =        23.4026  DIHED      =        23.4720
 1-4 NB =        15.5626  1-4 EEL =      -653.4870  VDWAALS    =      2791.1219
 EELEC  =    -21282.1645  EHBOND  =         0.0000  RESTRAINT  =         0.0000
 EKCMT  =         0.0000  VIRIAL  =         0.0000  VOLUME     =     60091.3661
                                                    Density    =         0.9873
 DV/DL  =       -53.6672
 ------------------------------------------------------------------------------

      R M S  F L U C T U A T I O N S

 NSTEP =    50000   TIME(PS) =     120.000  TEMP(K) =     9.98  PRESS =     0.0
 Etot   =       392.9512  EKtot   =       118.4703  EPtot      =       284.5706
 BOND   =         3.9201  ANGLE   =         3.7703  DIHED      =         4.3261
 1-4 NB =         1.4652  1-4 EEL =         4.1966  VDWAALS    =       145.8897
 EELEC  =       418.1336  EHBOND  =         0.0000  RESTRAINT  =         0.0000
 EKCMT  =         0.0000  VIRIAL  =         0.0000  VOLUME     =       349.1645
                                                    Density    =         0.0057
 DV/DL  =         3.4719
 ------------------------------------------------------------------------------

      A V E R A G E S   O V E R   50000 S T E P S

 NSTEP =    50000   TIME(PS) =     120.000  TEMP(K) =   296.22  PRESS =     0.0
 Etot   =    -15546.3382  EKtot   =      3514.8044  EPtot      =    -19061.1426
 BOND   =        20.9498  ANGLE   =        23.4026  DIHED      =        23.4720
 1-4 NB =        15.5626  1-4 EEL =      -653.4870  VDWAALS    =      2791.1219
 EELEC  =    -21282.1645  EHBOND  =         0.0000  RESTRAINT  =         0.0000
 EKCMT  =         0.0000  VIRIAL  =         0.0000  VOLUME     =     60091.3661
                                                    Density    =         0.9873
 DV/DL  =       -53.6672
 ------------------------------------------------------------------------------

      R M S  F L U C T U A T I O N S

 NSTEP =    50000   TIME(PS) =     120.000  TEMP(K) =     9.98  PRESS =     0.0
 Etot   =       392.9512  EKtot   =       118.4703  EPtot      =       284.5706
 BOND   =         3.9201  ANGLE   =         3.7703  DIHED      =         4.3261
 1-4 NB =         1.4652  1-4 EEL =         4.1966  VDWAALS    =       145.8897
 EELEC  =       418.1336  EHBOND  =         0.0000  RESTRAINT  =         0.0000
 EKCMT  =         0.0000  VIRIAL  =         0.0000  VOLUME     =       349.1645
                                                    Density    =         0.0057
 DV/DL  =         3.4719
 ------------------------------------------------------------------------------

      DV/DL, AVERAGES OVER   50000 STEPS

 NSTEP =    50000   TIME(PS) =     120.000  TEMP(K) =     9.98  PRESS =     0.0
 Etot   =         0.0000  EKtot   =         0.0000  EPtot      =       -53.1319
 BOND   =         0.0000  ANGLE   =         0.0000  DIHED      =         0.0000
 1-4 NB =         0.0000  1-4 EEL =         0.0000  VDWAALS    =         0.0000
 EELEC  =       -79.8701  EHBOND  =         0.0000  RESTRAINT  =         0.0000
 EKCMT  =         0.0000  VIRIAL  =         0.0000  VOLUME     =         0.0000
                                                    Density    =         0.0000
 DV/DL  =       -53.1319
 ------------------------------------------------------------------------------

      A V E R A G E S   O V E R   50000 S T E P S

 NSTEP =   100000   TIME(PS) =     220.000  TEMP(K) =   297.64  PRESS =     0.0
 Etot   =    -15491.9941  EKtot   =      3531.6550  EPtot      =    -19023.6491
 BOND   =        21.6340  ANGLE   =        24.1021  DIHED      =        22.4092
 1-4 NB =        15.6795  1-4 EEL =      -653.3293  VDWAALS    =      2780.3340
 EELEC  =    -21234.4786  EHBOND  =         0.0000  RESTRAINT  =         0.0000
 EKCMT  =         0.0000  VIRIAL  =         0.0000  VOLUME     =     60100.5916
                                                    Density    =         0.9871
 DV/DL  =       -53.8720
 ------------------------------------------------------------------------------

      R M S  F L U C T U A T I O N S

 NSTEP =   100000   TIME(PS) =     220.000  TEMP(K) =     3.91  PRESS =     0.0
 Etot   =        81.3889  EKtot   =        46.4035  EPtot      =        65.6966
 BOND   =         4.2231  ANGLE   =         3.9261  DIHED      =         3.7182
 1-4 NB =         1.4758  1-4 EEL =         4.3232  VDWAALS    =        69.2473
 EELEC  =       108.7722  EHBOND  =         0.0000  RESTRAINT  =         0.0000
 EKCMT  =         0.0000  VIRIAL  =         0.0000  VOLUME     =       344.4130
                                                    Density    =         0.0056
 DV/DL  =         3.5504
 ------------------------------------------------------------------------------

      A V E R A G E S   O V E R   50000 S T E P S

 NSTEP =   100000   TIME(PS) =     220.000  TEMP(K) =   297.64  PRESS =     0.0
 Etot   =    -15491.9941  EKtot   =      3531.6550  EPtot      =    -19023.6491
 BOND   =        21.6340  ANGLE   =        24.1021  DIHED      =        22.4092
 1-4 NB =        15.6795  1-4 EEL =      -653.3293  VDWAALS    =      2780.3340
 EELEC  =    -21234.4786  EHBOND  =         0.0000  RESTRAINT  =         0.0000
 EKCMT  =         0.0000  VIRIAL  =         0.0000  VOLUME     =     60100.5916
                                                    Density    =         0.9871
 DV/DL  =       -53.8720
 ------------------------------------------------------------------------------

      R M S  F L U C T U A T I O N S

 NSTEP =   100000   TIME(PS) =     220.000  TEMP(K) =     3.91  PRESS =     0.0
 Etot   =        81.3889  EKtot   =        46.4035  EPtot      =        65.6966
 BOND   =         4.2231  ANGLE   =         3.9261  DIHED      =         3.7182
 1-4 NB =         1.4758  1-4 EEL =         4.3232  VDWAALS    =        69.2473
 EELEC  =       108.7722  EHBOND  =         0.0000  RESTRAINT  =         0.0000
 EKCMT  =         0.0000  VIRIAL  =         0.0000  VOLUME     =       344.4130
                                                    Density    =         0.0056
 DV/DL  =         3.5504
 ------------------------------------------------------------------------------

      DV/DL, AVERAGES OVER   50000 STEPS

 NSTEP =   100000   TIME(PS) =     220.000  TEMP(K) =     3.91  PRESS =     0.0
 Etot   =         0.0000  EKtot   =         0.0000  EPtot      =       -53.3331
 BOND   =         0.0000  ANGLE   =         0.0000  DIHED      =         0.0000
 1-4 NB =         0.0000  1-4 EEL =         0.0000  VDWAALS    =         0.0000
 EELEC  =       -79.8701  EHBOND  =         0.0000  RESTRAINT  =         0.0000
 EKCMT  =         0.0000  VIRIAL  =         0.0000  VOLUME     =         0.0000
                                                    Density    =         0.0000
 DV/DL  =       -53.3331
 ------------------------------------------------------------------------------

      A V E R A G E S   O V E R   50000 S T E P S

 NSTEP =   500000   TIME(PS) =    1020.000  TEMP(K) =   298.01  PRESS =     0.0
 Etot   =    -15471.0816  EKtot   =      3536.0937  EPtot      =    -19007.1753
 BOND   =        21.6303  ANGLE   =        23.7489  DIHED      =        22.3753
 1-4 NB =        15.4725  1-4 EEL =      -652.5840  VDWAALS    =      2767.8110
 EELEC  =    -21205.6295  EHBOND  =         0.0000  RESTRAINT  =         0.0000
 EKCMT  =         0.0000  VIRIAL  =         0.0000  VOLUME     =     60089.7451
                                                    Density    =         0.9873
 DV/DL  =       -53.6463
 ------------------------------------------------------------------------------

      R M S  F L U C T U A T I O N S

 NSTEP =   500000   TIME(PS) =    1020.000  TEMP(K) =     3.95  PRESS =     0.0
 Etot   =        79.5358  EKtot   =        46.9003  EPtot      =        65.3766
 BOND   =         4.2908  ANGLE   =         3.9664  DIHED      =         3.5800
 1-4 NB =         1.4476  1-4 EEL =         4.2774  VDWAALS    =        68.3239
 EELEC  =       107.7549  EHBOND  =         0.0000  RESTRAINT  =         0.0000
 EKCMT  =         0.0000  VIRIAL  =         0.0000  VOLUME     =       378.1594
                                                    Density    =         0.0062
 DV/DL  =         3.4527
 ------------------------------------------------------------------------------

      A V E R A G E S   O V E R   50000 S T E P S

 NSTEP =   500000   TIME(PS) =    1020.000  TEMP(K) =   298.01  PRESS =     0.0
 Etot   =    -15471.0816  EKtot   =      3536.0937  EPtot      =    -19007.1753
 BOND   =        21.6303  ANGLE   =        23.7489  DIHED      =        22.3753
 1-4 NB =        15.4725  1-4 EEL =      -652.5840  VDWAALS    =      2767.8110
 EELEC  =    -21205.6295  EHBOND  =         0.0000  RESTRAINT  =         0.0000
 EKCMT  =         0.0000  VIRIAL  =         0.0000  VOLUME     =     60089.7451
                                                    Density    =         0.9873
 DV/DL  =       -53.6463
 ------------------------------------------------------------------------------

      R M S  F L U C T U A T I O N S

 NSTEP =   500000   TIME(PS) =    1020.000  TEMP(K) =     3.95  PRESS =     0.0
 Etot   =        79.5358  EKtot   =        46.9003  EPtot      =        65.3766
 BOND   =         4.2908  ANGLE   =         3.9664  DIHED      =         3.5800
 1-4 NB =         1.4476  1-4 EEL =         4.2774  VDWAALS    =        68.3239
 EELEC  =       107.7549  EHBOND  =         0.0000  RESTRAINT  =         0.0000
 EKCMT  =         0.0000  VIRIAL  =         0.0000  VOLUME     =       378.1594
                                                    Density    =         0.0062
 DV/DL  =         3.4527
 ------------------------------------------------------------------------------

      DV/DL, AVERAGES OVER   50000 STEPS

 NSTEP =   500000   TIME(PS) =    1020.000  TEMP(K) =     3.95  PRESS =     0.0
 Etot   =         0.0000  EKtot   =         0.0000  EPtot      =       -53.1095
 BOND   =         0.0000  ANGLE   =         0.0000  DIHED      =         0.0000
 1-4 NB =         0.0000  1-4 EEL =         0.0000  VDWAALS    =         0.0000
 EELEC  =       -79.8701  EHBOND  =         0.0000  RESTRAINT  =         0.0000
 EKCMT  =         0.0000  VIRIAL  =         0.0000  VOLUME     =         0.0000
                                                    Density    =         0.0000
 DV/DL  =       -53.1095
 ------------------------------------------------------------------------------

      A V E R A G E S   O V E R  500000 S T E P S

 NSTEP =   500000   TIME(PS) =    1020.000  TEMP(K) =   297.49  PRESS =     0.0
 Etot   =    -15499.1044  EKtot   =      3529.8209  EPtot      =    -19028.9253
 BOND   =        21.4187  ANGLE   =        23.8789  DIHED      =        22.6868
 1-4 NB =        15.5753  1-4 EEL =      -652.7615  VDWAALS    =      2780.4634
 EELEC  =    -21240.1869  EHBOND  =         0.0000  RESTRAINT  =         0.0000
 EKCMT  =         0.0000  VIRIAL  =         0.0000  VOLUME     =     60064.0083
                                                    Density    =         0.9877
 DV/DL  =       -53.7034
 ------------------------------------------------------------------------------

      R M S  F L U C T U A T I O N S

 NSTEP =   500000   TIME(PS) =    1020.000  TEMP(K) =     4.87  PRESS =     0.0
 Etot   =       147.9097  EKtot   =        57.8097  EPtot      =       111.2259
 BOND   =         4.1643  ANGLE   =         3.9362  DIHED      =         3.8812
 1-4 NB =         1.4630  1-4 EEL =         4.2911  VDWAALS    =        79.7166
 EELEC  =       168.8714  EHBOND  =         0.0000  RESTRAINT  =         0.0000
 EKCMT  =         0.0000  VIRIAL  =         0.0000  VOLUME     =       361.2052
                                                    Density    =         0.0059
 DV/DL  =         3.4499
 ------------------------------------------------------------------------------

      A V E R A G E S   O V E R  500000 S T E P S

 NSTEP =   500000   TIME(PS) =    1020.000  TEMP(K) =   297.49  PRESS =     0.0
 Etot   =    -15499.1044  EKtot   =      3529.8209  EPtot      =    -19028.9253
 BOND   =        21.4187  ANGLE   =        23.8789  DIHED      =        22.6868
 1-4 NB =        15.5753  1-4 EEL =      -652.7615  VDWAALS    =      2780.4634
 EELEC  =    -21240.1869  EHBOND  =         0.0000  RESTRAINT  =         0.0000
 EKCMT  =         0.0000  VIRIAL  =         0.0000  VOLUME     =     60064.0083
                                                    Density    =         0.9877
 DV/DL  =       -53.7034
 ------------------------------------------------------------------------------

      R M S  F L U C T U A T I O N S

 NSTEP =   500000   TIME(PS) =    1020.000  TEMP(K) =     4.87  PRESS =     0.0
 Etot   =       147.9097  EKtot   =        57.8097  EPtot      =       111.2259
 BOND   =         4.1643  ANGLE   =         3.9362  DIHED      =         3.8812
 1-4 NB =         1.4630  1-4 EEL =         4.2911  VDWAALS    =        79.7166
 EELEC  =       168.8714  EHBOND  =         0.0000  RESTRAINT  =         0.0000
 EKCMT  =         0.0000  VIRIAL  =         0.0000  VOLUME     =       361.2052
                                                    Density    =         0.0059
 DV/DL  =         3.4499
 ------------------------------------------------------------------------------

      DV/DL, AVERAGES OVER  500000 STEPS

 NSTEP =   500000   TIME(PS) =    1020.000  TEMP(K) =     4.87  PRESS =     0.0
 Etot   =         0.0000  EKtot   =         0.0000  EPtot      =       -53.1665
 BOND   =         0.0000  ANGLE   =         0.0000  DIHED      =         0.0000
 1-4 NB =         0.0000  1-4 EEL =         0.0000  VDWAALS    =         0.0000
 EELEC  =       -79.8701  EHBOND  =         0.0000  RESTRAINT  =         0.0000
 EKCMT  =         0.0000  VIRIAL  =         0.0000  VOLUME     =         0.0000
                                                    Density    =         0.0000
 DV/DL  =       -53.1665
 ------------------------------------------------------------------------------
