-------------------------------------------------------
          Amber 16 PMEMD                              2016
          -------------------------------------------------------

  [-O]verwriting output

File Assignments:

 Here is the input file:

TI/FEP, NpT, vdW+bonded transformation
 &cntrl
 ! please adjust namelist parameters to your needs!

 ! parameters for general MD
 imin = 0, nstlim = 500000, irest = 1, ntx = 5, dt = 0.002,
 ntt = 3, temp0 = 298.0, gamma_ln = 2.0, ig = -1,
 ntb = 2,
 ntp = 1, barostat = 2, pres0 = 1.01325, taup = 2.0,
 ntwe = 100, ntwx = 10000, ntpr = 1000, ntwr = 50000, ntave = 50000,
 ioutfm = 1, iwrap = 1, ntxo = 2,

 ! parameters for alchemical free energy simulation
 ntc = 2, ntf = 1,
 noshakemask = ':1,2',

 icfe = 1, ifsc = 1, clambda = 0.5626, scalpha = 0.5, scbeta = 12.0,
 ifmbar = 1, mbar_lambda = 0.0 0.0479 0.1150 0.2063 0.3160 0.4373 0.5626 0.6839
 mbar_states = 12, bar_intervall = 1000,   ! ntpr = bar_intervall for alchemica

 timask1=':1', timask2=':2',
scmask1=':1@H34',
scmask2=':2@Cl18',
 crgmask = ':1@H34 | :2@Cl18',
 /
 &ewald
 /

Note: ig = -1. Setting random seed to   244444 based on wallclock time in
      microseconds.

--------------------------------------------------------------------------------
   1.  RESOURCE   USE:
--------------------------------------------------------------------------------

 getting box info from netcdf restart file
 NATOM  =    4115 NTYPES =      13 NBONH =    4066 MBONA  =      55
 NTHETH =      78 MTHETA =      84 NPHIH =     153 MPHIA  =     133
 NHPARM =       0 NPARM  =       0 NNB   =    5842 NRES   =    1345
 NBONA  =      55 NTHETA =      84 NPHIA =     133 NUMBND =      22
 NUMANG =      35 NPTRA  =      14 NATYP =      17 NPHB   =       1
 IFBOX  =       1 NMXRS  =      43 IFCAP =       0 NEXTRA =       0
 NCOPY  =       0

     BOX TYPE: RECTILINEAR

--------------------------------------------------------------------------------
   2.  CONTROL  DATA  FOR  THE  RUN
--------------------------------------------------------------------------------

L0

General flags:
     imin    =       0, nmropt  =       0

Nature and format of input:
     ntx     =       5, irest   =       1, ntrx    =       1

Nature and format of output:
     ntxo    =       2, ntpr    =    1000, ntrx    =       1, ntwr    =   50000
     iwrap   =       1, ntwx    =   10000, ntwv    =       0, ntwe    =     100
     ioutfm  =       1, ntwprt  =       0, idecomp =       0, rbornstat=      0

Potential function:
     ntf     =       1, ntb     =       2, igb     =       0, nsnb    =      25
     ipol    =       0, gbsa    =       0, iesp    =       0
     dielc   =   1.00000, cut     =   8.00000, intdiel =   1.00000

Frozen or restrained atoms:
     ibelly  =       0, ntr     =       0

Molecular dynamics:
     nstlim  =    500000, nscm    =      1000, nrespa  =         1
     t       =   0.00000, dt      =   0.00200, vlimit  =  -1.00000

Langevin dynamics temperature regulation:
     ig      =  244444
     temp0   = 298.00000, tempi   =   0.00000, gamma_ln=   2.00000

Pressure regulation:
     ntp     =       1
     pres0   =   1.01325, comp    =  44.60000, taup    =   2.00000
     Monte-Carlo Barostat:
     mcbarint  =     100

SHAKE:
     ntc     =       2, jfastw  =       0
     tol     =   0.00001

Free energy options:
     icfe    =       1, ifsc    =       1, klambda =       1
     clambda =  0.5626, scalpha =  0.5000, scbeta  = 12.0000
     sceeorder =       2
     dynlmb =  0.0000 logdvdl =       0

FEP MBAR options:
     ifmbar  =       1,  bar_intervall =     1000
     mbar_states =      12

Ewald parameters:
     verbose =       0, ew_type =       0, nbflag  =       1, use_pme =       1
     vdwmeth =       1, eedmeth =       1, netfrc  =       1
     Box X =   32.703   Box Y =   37.439   Box Z =   33.758
     Alpha =   90.000   Beta  =   90.000   Gamma =   90.000
     NFFT1 =   36       NFFT2 =   40       NFFT3 =   36
     Cutoff=    8.000   Tol   =0.100E-04
     Ewald Coefficient =  0.34864
     Interpolation order =    4
     TI Mask 1 :1; matches     43 atoms
     TI Mask 2 :2; matches     43 atoms
     TI region 1:    4072 atoms
     TI region 2:    4072 atoms
     SC Mask 1 :1@H34; matches      1 atoms
     SC Mask 2 :2@Cl18; matches      1 atoms
Removing charge of       0.1510 from atom      43
Removing charge of      -0.0609 from atom      86
Total charge of   0.09010100 removed from       2 atoms

    MBAR - lambda values considered:
      12 total:  0.0000 0.0479 0.1150 0.2063 0.3160 0.4373 0.5626 0.6839 0.7936 0.8849 0.9520 1.0000
    Extra energies will be computed    500 times.
 Noshake mask :1,2; matches      86 atoms.

--------------------------------------------------------------------------------
   3.  ATOMIC COORDINATES AND VELOCITIES
--------------------------------------------------------------------------------

L0
 begin time read from input coords =    20.000 ps

     Molecule     1 is partially softcore
     Molecule     2 is partially softcore
 Number of triangulated 3-point waters found:     1343
   Removing shake constraints from C22   L0    1 -- H41   L0    1
   Removing shake constraints from C22   L0    1 -- H42   L0    1
   Removing shake constraints from C21   L0    1 -- H39   L0    1
   Removing shake constraints from C21   L0    1 -- H40   L0    1
   Removing shake constraints from C20   L0    1 -- H38   L0    1
   Removing shake constraints from C19   L0    1 -- H37   L0    1
   Removing shake constraints from C18   L0    1 -- H36   L0    1
   Removing shake constraints from C15   L0    1 -- H35   L0    1
   Removing shake constraints from C14   L0    1 -- H34   L0    1
   Removing shake constraints from C13   L0    1 -- H33   L0    1
   Removing shake constraints from C10   L0    1 -- H32   L0    1
   Removing shake constraints from C9    L0    1 -- H31   L0    1
   Removing shake constraints from C8    L0    1 -- H30   L0    1
   Removing shake constraints from N5    L0    1 -- H29   L0    1
   Removing shake constraints from N4    L0    1 -- H43   L0    1
   Removing shake constraints from N4    L0    1 -- H28   L0    1
   Removing shake constraints from C1    L0    1 -- H25   L0    1
   Removing shake constraints from C1    L0    1 -- H26   L0    1
   Removing shake constraints from C1    L0    1 -- H27   L0    1
   Removing shake constraints from C23   L1    2 -- H41   L1    2
   Removing shake constraints from C23   L1    2 -- H42   L1    2
   Removing shake constraints from C22   L1    2 -- H39   L1    2
   Removing shake constraints from C22   L1    2 -- H40   L1    2
   Removing shake constraints from C21   L1    2 -- H38   L1    2
   Removing shake constraints from C20   L1    2 -- H37   L1    2
   Removing shake constraints from C13   L1    2 -- H34   L1    2
   Removing shake constraints from C16   L1    2 -- H35   L1    2
   Removing shake constraints from C19   L1    2 -- H36   L1    2
   Removing shake constraints from C10   L1    2 -- H33   L1    2
   Removing shake constraints from C9    L1    2 -- H32   L1    2
   Removing shake constraints from C8    L1    2 -- H31   L1    2
   Removing shake constraints from N5    L1    2 -- H30   L1    2
   Removing shake constraints from N4    L1    2 -- H43   L1    2
   Removing shake constraints from N4    L1    2 -- H29   L1    2
   Removing shake constraints from C1    L1    2 -- H26   L1    2
   Removing shake constraints from C1    L1    2 -- H27   L1    2
   Removing shake constraints from C1    L1    2 -- H28   L1    2
 WARNING: SHAKEn bond for atoms       14       43 is partially softcore.
 Coordinates for common atoms will be synchronized from V0.
 Consider using noshake mask or disabling SHAKE.

 Number of shake restraints removed in TI region  1 :       19
 Number of shake restraints removed in TI region  2 :       18

     Sum of charges for TI region  1 =   0.84897300
     Assuming uniform neutralizing plasma

     Sum of charges for TI region  2 =   1.06096699
     Assuming uniform neutralizing plasma

--------------------------------------------------------------------------------
   4.  RESULTS
 NSTEP =     1000   TIME(PS) =      22.000  TEMP(K) =   279.67  PRESS =     0.0
 Etot   =    -10908.4588  EKtot   =      2270.0288  EPtot      =    -13178.4876
 BOND   =        22.3350  ANGLE   =        35.6494  DIHED      =        13.9752
 1-4 NB =         6.7434  1-4 EEL =       -67.6662  VDWAALS    =      2050.7276
 EELEC  =    -15240.2520  EHBOND  =         0.0000  RESTRAINT  =         0.0000
 EKCMT  =         0.0000  VIRIAL  =         0.0000  VOLUME     =     41921.7151
                                                    Density    =         0.9719
 DV/DL  =         2.4486
 ------------------------------------------------------------------------------

      A V E R A G E S   O V E R   50000 S T E P S

 NSTEP =    50000   TIME(PS) =     120.000  TEMP(K) =   297.61  PRESS =     0.0
 Etot   =    -10443.8850  EKtot   =      2415.5866  EPtot      =    -12859.4716
 BOND   =        18.0804  ANGLE   =        32.2146  DIHED      =        18.7275
 1-4 NB =         7.8449  1-4 EEL =       -70.3679  VDWAALS    =      1910.1615
 EELEC  =    -14776.1327  EHBOND  =         0.0000  RESTRAINT  =         0.0000
 EKCMT  =         0.0000  VIRIAL  =         0.0000  VOLUME     =     41403.3888
                                                    Density    =         0.9841
 DV/DL  =         2.0378
 ------------------------------------------------------------------------------

      R M S  F L U C T U A T I O N S

 NSTEP =    50000   TIME(PS) =     120.000  TEMP(K) =    10.49  PRESS =     0.0
 Etot   =       277.5451  EKtot   =        85.1803  EPtot      =       201.5449
 BOND   =         3.8545  ANGLE   =         3.3096  DIHED      =         2.8416
 1-4 NB =         0.8572  1-4 EEL =         2.5414  VDWAALS    =       101.7543
 EELEC  =       291.1941  EHBOND  =         0.0000  RESTRAINT  =         0.0000
 EKCMT  =         0.0000  VIRIAL  =         0.0000  VOLUME     =       292.3286
                                                    Density    =         0.0070
 DV/DL  =         3.1803
 ------------------------------------------------------------------------------

      A V E R A G E S   O V E R   50000 S T E P S

 NSTEP =    50000   TIME(PS) =     120.000  TEMP(K) =   297.61  PRESS =     0.0
 Etot   =    -10443.9055  EKtot   =      2415.5661  EPtot      =    -12859.4716
 BOND   =        18.0804  ANGLE   =        32.2146  DIHED      =        18.7275
 1-4 NB =         7.8449  1-4 EEL =       -70.3679  VDWAALS    =      1910.1615
 EELEC  =    -14776.1327  EHBOND  =         0.0000  RESTRAINT  =         0.0000
 EKCMT  =         0.0000  VIRIAL  =         0.0000  VOLUME     =     41403.3888
                                                    Density    =         0.9855
 DV/DL  =         2.0378
 ------------------------------------------------------------------------------

      R M S  F L U C T U A T I O N S

 NSTEP =    50000   TIME(PS) =     120.000  TEMP(K) =    10.50  PRESS =     0.0
 Etot   =       277.5643  EKtot   =        85.1941  EPtot      =       201.5449
 BOND   =         3.8545  ANGLE   =         3.3096  DIHED      =         2.8416
 1-4 NB =         0.8572  1-4 EEL =         2.5414  VDWAALS    =       101.7543
 EELEC  =       291.1941  EHBOND  =         0.0000  RESTRAINT  =         0.0000
 EKCMT  =         0.0000  VIRIAL  =         0.0000  VOLUME     =       292.3286
                                                    Density    =         0.0070
 DV/DL  =         3.1803
 ------------------------------------------------------------------------------

      DV/DL, AVERAGES OVER   50000 STEPS

 NSTEP =    50000   TIME(PS) =     120.000  TEMP(K) =    10.50  PRESS =     0.0
 Etot   =         0.0000  EKtot   =         0.0000  EPtot      =         2.0173
 BOND   =         0.0000  ANGLE   =         0.0000  DIHED      =         0.0000
 1-4 NB =         0.0000  1-4 EEL =         0.0000  VDWAALS    =        -0.2535
 EELEC  =        -0.2354  EHBOND  =         0.0000  RESTRAINT  =         0.0000
 EKCMT  =         0.0000  VIRIAL  =         0.0000  VOLUME     =         0.0000
                                                    Density    =         0.0000
 DV/DL  =         2.0173
 ------------------------------------------------------------------------------

      A V E R A G E S   O V E R   50000 S T E P S

 NSTEP =   100000   TIME(PS) =     220.000  TEMP(K) =   298.69  PRESS =     0.0
 Etot   =    -10413.0796  EKtot   =      2424.3367  EPtot      =    -12837.4164
 BOND   =        17.9715  ANGLE   =        32.2731  DIHED      =        18.2603
 1-4 NB =         7.8086  1-4 EEL =       -72.3368  VDWAALS    =      1897.5880
 EELEC  =    -14738.9810  EHBOND  =         0.0000  RESTRAINT  =         0.0000
 EKCMT  =         0.0000  VIRIAL  =         0.0000  VOLUME     =     41283.2910
                                                    Density    =         0.9870
 DV/DL  =         2.1955
 ------------------------------------------------------------------------------

      R M S  F L U C T U A T I O N S

 NSTEP =   100000   TIME(PS) =     220.000  TEMP(K) =     4.68  PRESS =     0.0
 Etot   =        70.3975  EKtot   =        37.9552  EPtot      =        58.8036
 BOND   =         3.7594  ANGLE   =         3.2709  DIHED      =         2.5753
 1-4 NB =         0.8437  1-4 EEL =         1.6558  VDWAALS    =        58.1828
 EELEC  =        94.6092  EHBOND  =         0.0000  RESTRAINT  =         0.0000
 EKCMT  =         0.0000  VIRIAL  =         0.0000  VOLUME     =       350.4229
                                                    Density    =         0.0084
 DV/DL  =         3.1619
 ------------------------------------------------------------------------------

      A V E R A G E S   O V E R   50000 S T E P S

 NSTEP =   100000   TIME(PS) =     220.000  TEMP(K) =   298.68  PRESS =     0.0
 Etot   =    -10413.1274  EKtot   =      2424.2890  EPtot      =    -12837.4164
 BOND   =        17.9715  ANGLE   =        32.2731  DIHED      =        18.2603
 1-4 NB =         7.8086  1-4 EEL =       -72.3368  VDWAALS    =      1897.5880
 EELEC  =    -14738.9810  EHBOND  =         0.0000  RESTRAINT  =         0.0000
 EKCMT  =         0.0000  VIRIAL  =         0.0000  VOLUME     =     41283.2910
                                                    Density    =         0.9884
 DV/DL  =         2.1955
 ------------------------------------------------------------------------------

      R M S  F L U C T U A T I O N S

 NSTEP =   100000   TIME(PS) =     220.000  TEMP(K) =     4.67  PRESS =     0.0
 Etot   =        70.3743  EKtot   =        37.9452  EPtot      =        58.8036
 BOND   =         3.7594  ANGLE   =         3.2709  DIHED      =         2.5753
 1-4 NB =         0.8437  1-4 EEL =         1.6558  VDWAALS    =        58.1828
 EELEC  =        94.6092  EHBOND  =         0.0000  RESTRAINT  =         0.0000
 EKCMT  =         0.0000  VIRIAL  =         0.0000  VOLUME     =       350.4229
                                                    Density    =         0.0084
 DV/DL  =         3.1619
 ------------------------------------------------------------------------------

      DV/DL, AVERAGES OVER   50000 STEPS

 NSTEP =   100000   TIME(PS) =     220.000  TEMP(K) =     4.67  PRESS =     0.0
 Etot   =         0.0000  EKtot   =         0.0000  EPtot      =         2.1739
 BOND   =         0.0000  ANGLE   =         0.0000  DIHED      =         0.0000
 1-4 NB =         0.0000  1-4 EEL =         0.0000  VDWAALS    =        -0.2542
 EELEC  =        -0.2355  EHBOND  =         0.0000  RESTRAINT  =         0.0000
 EKCMT  =         0.0000  VIRIAL  =         0.0000  VOLUME     =         0.0000
                                                    Density    =         0.0000
 DV/DL  =         2.1739
 ------------------------------------------------------------------------------

      A V E R A G E S   O V E R   50000 S T E P S

 NSTEP =   500000   TIME(PS) =    1020.000  TEMP(K) =   298.91  PRESS =     0.0
 Etot   =    -10413.0602  EKtot   =      2426.1713  EPtot      =    -12839.2315
 BOND   =        18.1392  ANGLE   =        32.4801  DIHED      =        18.0696
 1-4 NB =         7.9384  1-4 EEL =       -71.2257  VDWAALS    =      1898.3356
 EELEC  =    -14742.9688  EHBOND  =         0.0000  RESTRAINT  =         0.0000
 EKCMT  =         0.0000  VIRIAL  =         0.0000  VOLUME     =     41228.1328
                                                    Density    =         0.9883
 DV/DL  =         2.2718
 ------------------------------------------------------------------------------

      R M S  F L U C T U A T I O N S

 NSTEP =   500000   TIME(PS) =    1020.000  TEMP(K) =     4.63  PRESS =     0.0
 Etot   =        71.9681  EKtot   =        37.5443  EPtot      =        60.2231
 BOND   =         3.7934  ANGLE   =         3.2870  DIHED      =         2.6494
 1-4 NB =         0.9118  1-4 EEL =         2.8830  VDWAALS    =        58.4983
 EELEC  =        97.9906  EHBOND  =         0.0000  RESTRAINT  =         0.0000
 EKCMT  =         0.0000  VIRIAL  =         0.0000  VOLUME     =       340.4948
                                                    Density    =         0.0082
 DV/DL  =         3.7026
 ------------------------------------------------------------------------------

      A V E R A G E S   O V E R   50000 S T E P S

 NSTEP =   500000   TIME(PS) =    1020.000  TEMP(K) =   298.91  PRESS =     0.0
 Etot   =    -10413.0482  EKtot   =      2426.1834  EPtot      =    -12839.2315
 BOND   =        18.1392  ANGLE   =        32.4801  DIHED      =        18.0696
 1-4 NB =         7.9384  1-4 EEL =       -71.2257  VDWAALS    =      1898.3356
 EELEC  =    -14742.9688  EHBOND  =         0.0000  RESTRAINT  =         0.0000
 EKCMT  =         0.0000  VIRIAL  =         0.0000  VOLUME     =     41228.1328
                                                    Density    =         0.9897
 DV/DL  =         2.2718
 ------------------------------------------------------------------------------

      R M S  F L U C T U A T I O N S

 NSTEP =   500000   TIME(PS) =    1020.000  TEMP(K) =     4.63  PRESS =     0.0
 Etot   =        71.9810  EKtot   =        37.5420  EPtot      =        60.2231
 BOND   =         3.7934  ANGLE   =         3.2870  DIHED      =         2.6494
 1-4 NB =         0.9118  1-4 EEL =         2.8830  VDWAALS    =        58.4983
 EELEC  =        97.9906  EHBOND  =         0.0000  RESTRAINT  =         0.0000
 EKCMT  =         0.0000  VIRIAL  =         0.0000  VOLUME     =       340.4948
                                                    Density    =         0.0082
 DV/DL  =         3.7026
 ------------------------------------------------------------------------------

      DV/DL, AVERAGES OVER   50000 STEPS

 NSTEP =   500000   TIME(PS) =    1020.000  TEMP(K) =     4.63  PRESS =     0.0
 Etot   =         0.0000  EKtot   =         0.0000  EPtot      =         2.2479
 BOND   =         0.0000  ANGLE   =         0.0000  DIHED      =         0.0000
 1-4 NB =         0.0000  1-4 EEL =         0.0000  VDWAALS    =        -0.2545
 EELEC  =        -0.2356  EHBOND  =         0.0000  RESTRAINT  =         0.0000
 EKCMT  =         0.0000  VIRIAL  =         0.0000  VOLUME     =         0.0000
                                                    Density    =         0.0000
 DV/DL  =         2.2479
 ------------------------------------------------------------------------------

      A V E R A G E S   O V E R  500000 S T E P S

 NSTEP =   500000   TIME(PS) =    1020.000  TEMP(K) =   298.73  PRESS =     0.0
 Etot   =    -10416.3343  EKtot   =      2424.6922  EPtot      =    -12841.0265
 BOND   =        18.0673  ANGLE   =        32.3328  DIHED      =        18.6292
 1-4 NB =         8.0257  1-4 EEL =       -68.9423  VDWAALS    =      1898.9277
 EELEC  =    -14748.0670  EHBOND  =         0.0000  RESTRAINT  =         0.0000
 EKCMT  =         0.0000  VIRIAL  =         0.0000  VOLUME     =     41275.2232
                                                    Density    =         0.9872
 DV/DL  =         2.3037
 ------------------------------------------------------------------------------

      R M S  F L U C T U A T I O N S

 NSTEP =   500000   TIME(PS) =    1020.000  TEMP(K) =     5.48  PRESS =     0.0
 Etot   =       108.2231  EKtot   =        44.4699  EPtot      =        82.8184
 BOND   =         3.8036  ANGLE   =         3.2922  DIHED      =         2.7324
 1-4 NB =         0.9253  1-4 EEL =         2.8567  VDWAALS    =        63.2132
 EELEC  =       126.3259  EHBOND  =         0.0000  RESTRAINT  =         0.0000
 EKCMT  =         0.0000  VIRIAL  =         0.0000  VOLUME     =       303.5442
                                                    Density    =         0.0073
 DV/DL  =         3.3806
 ------------------------------------------------------------------------------

      A V E R A G E S   O V E R  500000 S T E P S

 NSTEP =   500000   TIME(PS) =    1020.000  TEMP(K) =   298.73  PRESS =     0.0
 Etot   =    -10416.3350  EKtot   =      2424.6915  EPtot      =    -12841.0265
 BOND   =        18.0673  ANGLE   =        32.3328  DIHED      =        18.6292
 1-4 NB =         8.0257  1-4 EEL =       -68.9423  VDWAALS    =      1898.9277
 EELEC  =    -14748.0670  EHBOND  =         0.0000  RESTRAINT  =         0.0000
 EKCMT  =         0.0000  VIRIAL  =         0.0000  VOLUME     =     41275.2232
                                                    Density    =         0.9886
 DV/DL  =         2.3037
 ------------------------------------------------------------------------------

      R M S  F L U C T U A T I O N S

 NSTEP =   500000   TIME(PS) =    1020.000  TEMP(K) =     5.48  PRESS =     0.0
 Etot   =       108.2265  EKtot   =        44.4687  EPtot      =        82.8184
 BOND   =         3.8036  ANGLE   =         3.2922  DIHED      =         2.7324
 1-4 NB =         0.9253  1-4 EEL =         2.8567  VDWAALS    =        63.2132
 EELEC  =       126.3259  EHBOND  =         0.0000  RESTRAINT  =         0.0000
 EKCMT  =         0.0000  VIRIAL  =         0.0000  VOLUME     =       303.5442
                                                    Density    =         0.0073
 DV/DL  =         3.3806
 ------------------------------------------------------------------------------

      DV/DL, AVERAGES OVER  500000 STEPS

 NSTEP =   500000   TIME(PS) =    1020.000  TEMP(K) =     5.48  PRESS =     0.0
 Etot   =         0.0000  EKtot   =         0.0000  EPtot      =         2.2809
 BOND   =         0.0000  ANGLE   =         0.0000  DIHED      =         0.0000
 1-4 NB =         0.0000  1-4 EEL =         0.0000  VDWAALS    =        -0.2543
 EELEC  =        -0.2355  EHBOND  =         0.0000  RESTRAINT  =         0.0000
 EKCMT  =         0.0000  VIRIAL  =         0.0000  VOLUME     =         0.0000
                                                    Density    =         0.0000
 DV/DL  =         2.2809
 ------------------------------------------------------------------------------
