-------------------------------------------------------
          Amber 16 PMEMD                              2016
          -------------------------------------------------------

  [-O]verwriting output

File Assignments:

 Here is the input file:

TI/FEP, NpT, decharge transformation
 &cntrl
 ! please adjust namelist parameters to your needs!

 ! parameters for general MD
 imin = 0, nstlim = 500000, irest = 1, ntx = 5, dt = 0.002,
 ntt = 3, temp0 = 298.0, gamma_ln = 2.0, ig = -1,
 ntb = 2,
 ntp = 1, barostat = 2, pres0 = 1.01325, taup = 2.0,
 ntwe = 100, ntwx = 10000, ntpr = 1000, ntwr = 50000, ntave = 50000,
 ioutfm = 1, iwrap = 1, ntxo = 2,

 ! parameters for alchemical free energy simulation
 ntc = 2, ntf = 1,
 noshakemask = ':1,2',

 icfe = 1, ifsc = 0, clambda = 0.75, scalpha = 0.5, scbeta = 12.0,
 ifmbar = 1, mbar_lambda = 0.00 0.25 0.50 0.75 1.00,
 mbar_states = 5, bar_intervall = 1000,   ! ntpr = bar_intervall for alchemical

 timask1=':1', timask2=':2',
scmask1='',
scmask2='',
 crgmask = ':2@H34',
 /
 &ewald
 /

Note: ig = -1. Setting random seed to   710713 based on wallclock time in
      microseconds.

--------------------------------------------------------------------------------
   1.  RESOURCE   USE:
--------------------------------------------------------------------------------

 getting box info from netcdf restart file
 NATOM  =    4115 NTYPES =      13 NBONH =    4067 MBONA  =      54
 NTHETH =      80 MTHETA =      82 NPHIH =     156 MPHIA  =     130
 NHPARM =       0 NPARM  =       0 NNB   =    5842 NRES   =    1345
 NBONA  =      54 NTHETA =      82 NPHIA =     130 NUMBND =      22
 NUMANG =      35 NPTRA  =      14 NATYP =      17 NPHB   =       1
 IFBOX  =       1 NMXRS  =      43 IFCAP =       0 NEXTRA =       0
 NCOPY  =       0

     BOX TYPE: RECTILINEAR

--------------------------------------------------------------------------------
   2.  CONTROL  DATA  FOR  THE  RUN
--------------------------------------------------------------------------------

L0

General flags:
     imin    =       0, nmropt  =       0

Nature and format of input:
     ntx     =       5, irest   =       1, ntrx    =       1

Nature and format of output:
     ntxo    =       2, ntpr    =    1000, ntrx    =       1, ntwr    =   50000
     iwrap   =       1, ntwx    =   10000, ntwv    =       0, ntwe    =     100
     ioutfm  =       1, ntwprt  =       0, idecomp =       0, rbornstat=      0

Potential function:
     ntf     =       1, ntb     =       2, igb     =       0, nsnb    =      25
     ipol    =       0, gbsa    =       0, iesp    =       0
     dielc   =   1.00000, cut     =   8.00000, intdiel =   1.00000

Frozen or restrained atoms:
     ibelly  =       0, ntr     =       0

Molecular dynamics:
     nstlim  =    500000, nscm    =      1000, nrespa  =         1
     t       =   0.00000, dt      =   0.00200, vlimit  =  -1.00000

Langevin dynamics temperature regulation:
     ig      =  710713
     temp0   = 298.00000, tempi   =   0.00000, gamma_ln=   2.00000

Pressure regulation:
     ntp     =       1
     pres0   =   1.01325, comp    =  44.60000, taup    =   2.00000
     Monte-Carlo Barostat:
     mcbarint  =     100

SHAKE:
     ntc     =       2, jfastw  =       0
     tol     =   0.00001

Free energy options:
     icfe    =       1, ifsc    =       0, klambda =       1
     clambda =  0.7500, scalpha =  0.5000, scbeta  = 12.0000
     sceeorder =       2
     dynlmb =  0.0000 logdvdl =       0

FEP MBAR options:
     ifmbar  =       1,  bar_intervall =     1000
     mbar_states =       5

Ewald parameters:
     verbose =       0, ew_type =       0, nbflag  =       1, use_pme =       1
     vdwmeth =       1, eedmeth =       1, netfrc  =       1
     Box X =   32.703   Box Y =   37.439   Box Z =   33.758
     Alpha =   90.000   Beta  =   90.000   Gamma =   90.000
     NFFT1 =   36       NFFT2 =   40       NFFT3 =   36
     Cutoff=    8.000   Tol   =0.100E-04
     Ewald Coefficient =  0.34864
     Interpolation order =    4
     TI Mask 1 :1; matches     43 atoms
     TI Mask 2 :2; matches     43 atoms
     TI region 1:    4072 atoms
     TI region 2:    4072 atoms
Removing charge of       0.1510 from atom      86
Total charge of   0.15104700 removed from       1 atoms

    MBAR - lambda values considered:
       5 total:  0.0000 0.2500 0.5000 0.7500 1.0000
    Extra energies will be computed    500 times.
     Checking for mismatched coordinates.
 Noshake mask :1,2; matches      86 atoms.

--------------------------------------------------------------------------------
   3.  ATOMIC COORDINATES AND VELOCITIES
--------------------------------------------------------------------------------

L0
 begin time read from input coords =    20.000 ps

 Number of triangulated 3-point waters found:     1343
   Removing shake constraints from C22   L0    1 -- H41   L0    1
   Removing shake constraints from C22   L0    1 -- H42   L0    1
   Removing shake constraints from C21   L0    1 -- H39   L0    1
   Removing shake constraints from C21   L0    1 -- H40   L0    1
   Removing shake constraints from C20   L0    1 -- H38   L0    1
   Removing shake constraints from C19   L0    1 -- H37   L0    1
   Removing shake constraints from C18   L0    1 -- H36   L0    1
   Removing shake constraints from C15   L0    1 -- H35   L0    1
   Removing shake constraints from C14   L0    1 -- H34   L0    1
   Removing shake constraints from C13   L0    1 -- H33   L0    1
   Removing shake constraints from C10   L0    1 -- H32   L0    1
   Removing shake constraints from C9    L0    1 -- H31   L0    1
   Removing shake constraints from C8    L0    1 -- H30   L0    1
   Removing shake constraints from N5    L0    1 -- H29   L0    1
   Removing shake constraints from N4    L0    1 -- H43   L0    1
   Removing shake constraints from N4    L0    1 -- H28   L0    1
   Removing shake constraints from C1    L0    1 -- H25   L0    1
   Removing shake constraints from C1    L0    1 -- H26   L0    1
   Removing shake constraints from C1    L0    1 -- H27   L0    1
   Removing shake constraints from C22   L0    2 -- H41   L0    2
   Removing shake constraints from C22   L0    2 -- H42   L0    2
   Removing shake constraints from C21   L0    2 -- H39   L0    2
   Removing shake constraints from C21   L0    2 -- H40   L0    2
   Removing shake constraints from C20   L0    2 -- H38   L0    2
   Removing shake constraints from C19   L0    2 -- H37   L0    2
   Removing shake constraints from C18   L0    2 -- H36   L0    2
   Removing shake constraints from C15   L0    2 -- H35   L0    2
   Removing shake constraints from C14   L0    2 -- H34   L0    2
   Removing shake constraints from C13   L0    2 -- H33   L0    2
   Removing shake constraints from C10   L0    2 -- H32   L0    2
   Removing shake constraints from C9    L0    2 -- H31   L0    2
   Removing shake constraints from C8    L0    2 -- H30   L0    2
   Removing shake constraints from N5    L0    2 -- H29   L0    2
   Removing shake constraints from N4    L0    2 -- H43   L0    2
   Removing shake constraints from N4    L0    2 -- H28   L0    2
   Removing shake constraints from C1    L0    2 -- H25   L0    2
   Removing shake constraints from C1    L0    2 -- H26   L0    2
   Removing shake constraints from C1    L0    2 -- H27   L0    2
 Number of shake restraints removed:       38

     Sum of charges for TI region  1 =   1.00002000
     Assuming uniform neutralizing plasma

     Sum of charges for TI region  2 =   0.84897300
     Assuming uniform neutralizing plasma

--------------------------------------------------------------------------------
   4.  RESULTS
 NSTEP =     1000   TIME(PS) =      22.000  TEMP(K) =   277.47  PRESS =     0.0
 Etot   =    -11009.8652  EKtot   =      2262.3494  EPtot      =    -13272.2145
 BOND   =        16.9022  ANGLE   =        30.4422  DIHED      =        19.4244
 1-4 NB =         8.4520  1-4 EEL =       -62.9428  VDWAALS    =      2115.8712
 EELEC  =    -15400.3638  EHBOND  =         0.0000  RESTRAINT  =         0.0000
 EKCMT  =         0.0000  VIRIAL  =         0.0000  VOLUME     =     41691.8985
                                                    Density    =         0.9773
 DV/DL  =        -6.7749
 ------------------------------------------------------------------------------

      A V E R A G E S   O V E R   50000 S T E P S

 NSTEP =    50000   TIME(PS) =     120.000  TEMP(K) =   295.75  PRESS =     0.0
 Etot   =    -10475.0975  EKtot   =      2411.4054  EPtot      =    -12886.5029
 BOND   =        18.1288  ANGLE   =        32.2601  DIHED      =        19.0085
 1-4 NB =         7.8894  1-4 EEL =       -65.4758  VDWAALS    =      1917.1290
 EELEC  =    -14815.4430  EHBOND  =         0.0000  RESTRAINT  =         0.0000
 EKCMT  =         0.0000  VIRIAL  =         0.0000  VOLUME     =     41108.8102
                                                    Density    =         0.9912
 DV/DL  =        -6.3352
 ------------------------------------------------------------------------------

      R M S  F L U C T U A T I O N S

 NSTEP =    50000   TIME(PS) =     120.000  TEMP(K) =    10.69  PRESS =     0.0
 Etot   =       283.6845  EKtot   =        87.1734  EPtot      =       205.1346
 BOND   =         3.8440  ANGLE   =         3.3400  DIHED      =         2.7918
 1-4 NB =         0.8590  1-4 EEL =         1.8486  VDWAALS    =       100.8405
 EELEC  =       293.5140  EHBOND  =         0.0000  RESTRAINT  =         0.0000
 EKCMT  =         0.0000  VIRIAL  =         0.0000  VOLUME     =       309.1683
                                                    Density    =         0.0074
 DV/DL  =         1.4421
 ------------------------------------------------------------------------------

      A V E R A G E S   O V E R   50000 S T E P S

 NSTEP =    50000   TIME(PS) =     120.000  TEMP(K) =   295.75  PRESS =     0.0
 Etot   =    -10475.0975  EKtot   =      2411.4054  EPtot      =    -12886.5029
 BOND   =        18.1288  ANGLE   =        32.2601  DIHED      =        19.0085
 1-4 NB =         7.8894  1-4 EEL =       -65.4758  VDWAALS    =      1917.1290
 EELEC  =    -14815.4430  EHBOND  =         0.0000  RESTRAINT  =         0.0000
 EKCMT  =         0.0000  VIRIAL  =         0.0000  VOLUME     =     41108.8102
                                                    Density    =         0.9912
 DV/DL  =        -6.3352
 ------------------------------------------------------------------------------

      R M S  F L U C T U A T I O N S

 NSTEP =    50000   TIME(PS) =     120.000  TEMP(K) =    10.69  PRESS =     0.0
 Etot   =       283.6845  EKtot   =        87.1734  EPtot      =       205.1346
 BOND   =         3.8440  ANGLE   =         3.3400  DIHED      =         2.7918
 1-4 NB =         0.8590  1-4 EEL =         1.8486  VDWAALS    =       100.8405
 EELEC  =       293.5140  EHBOND  =         0.0000  RESTRAINT  =         0.0000
 EKCMT  =         0.0000  VIRIAL  =         0.0000  VOLUME     =       309.1683
                                                    Density    =         0.0074
 DV/DL  =         1.4421
 ------------------------------------------------------------------------------

      DV/DL, AVERAGES OVER   50000 STEPS

 NSTEP =    50000   TIME(PS) =     120.000  TEMP(K) =    10.69  PRESS =     0.0
 Etot   =         0.0000  EKtot   =         0.0000  EPtot      =        -6.2719
 BOND   =         0.0000  ANGLE   =         0.0000  DIHED      =         0.0000
 1-4 NB =         0.0000  1-4 EEL =         0.0000  VDWAALS    =         0.0000
 EELEC  =         1.5193  EHBOND  =         0.0000  RESTRAINT  =         0.0000
 EKCMT  =         0.0000  VIRIAL  =         0.0000  VOLUME     =         0.0000
                                                    Density    =         0.0000
 DV/DL  =        -6.2719
 ------------------------------------------------------------------------------

      A V E R A G E S   O V E R   50000 S T E P S

 NSTEP =   100000   TIME(PS) =     220.000  TEMP(K) =   297.02  PRESS =     0.0
 Etot   =    -10421.2384  EKtot   =      2421.7590  EPtot      =    -12842.9974
 BOND   =        18.6231  ANGLE   =        32.6236  DIHED      =        18.9700
 1-4 NB =         7.9245  1-4 EEL =       -65.5829  VDWAALS    =      1899.0625
 EELEC  =    -14754.6184  EHBOND  =         0.0000  RESTRAINT  =         0.0000
 EKCMT  =         0.0000  VIRIAL  =         0.0000  VOLUME     =     41183.4036
                                                    Density    =         0.9894
 DV/DL  =        -6.2397
 ------------------------------------------------------------------------------

      R M S  F L U C T U A T I O N S

 NSTEP =   100000   TIME(PS) =     220.000  TEMP(K) =     4.57  PRESS =     0.0
 Etot   =        68.2993  EKtot   =        37.2385  EPtot      =        57.2602
 BOND   =         3.8294  ANGLE   =         3.2211  DIHED      =         2.6261
 1-4 NB =         0.8604  1-4 EEL =         1.8801  VDWAALS    =        57.4636
 EELEC  =        91.9186  EHBOND  =         0.0000  RESTRAINT  =         0.0000
 EKCMT  =         0.0000  VIRIAL  =         0.0000  VOLUME     =       325.3702
                                                    Density    =         0.0078
 DV/DL  =         1.3843
 ------------------------------------------------------------------------------

      A V E R A G E S   O V E R   50000 S T E P S

 NSTEP =   100000   TIME(PS) =     220.000  TEMP(K) =   297.02  PRESS =     0.0
 Etot   =    -10421.2384  EKtot   =      2421.7590  EPtot      =    -12842.9974
 BOND   =        18.6231  ANGLE   =        32.6236  DIHED      =        18.9700
 1-4 NB =         7.9245  1-4 EEL =       -65.5829  VDWAALS    =      1899.0625
 EELEC  =    -14754.6184  EHBOND  =         0.0000  RESTRAINT  =         0.0000
 EKCMT  =         0.0000  VIRIAL  =         0.0000  VOLUME     =     41183.4036
                                                    Density    =         0.9894
 DV/DL  =        -6.2397
 ------------------------------------------------------------------------------

      R M S  F L U C T U A T I O N S

 NSTEP =   100000   TIME(PS) =     220.000  TEMP(K) =     4.57  PRESS =     0.0
 Etot   =        68.2993  EKtot   =        37.2385  EPtot      =        57.2602
 BOND   =         3.8294  ANGLE   =         3.2211  DIHED      =         2.6261
 1-4 NB =         0.8604  1-4 EEL =         1.8801  VDWAALS    =        57.4636
 EELEC  =        91.9186  EHBOND  =         0.0000  RESTRAINT  =         0.0000
 EKCMT  =         0.0000  VIRIAL  =         0.0000  VOLUME     =       325.3702
                                                    Density    =         0.0078
 DV/DL  =         1.3843
 ------------------------------------------------------------------------------

      DV/DL, AVERAGES OVER   50000 STEPS

 NSTEP =   100000   TIME(PS) =     220.000  TEMP(K) =     4.57  PRESS =     0.0
 Etot   =         0.0000  EKtot   =         0.0000  EPtot      =        -6.1770
 BOND   =         0.0000  ANGLE   =         0.0000  DIHED      =         0.0000
 1-4 NB =         0.0000  1-4 EEL =         0.0000  VDWAALS    =         0.0000
 EELEC  =         1.5193  EHBOND  =         0.0000  RESTRAINT  =         0.0000
 EKCMT  =         0.0000  VIRIAL  =         0.0000  VOLUME     =         0.0000
                                                    Density    =         0.0000
 DV/DL  =        -6.1770
 ------------------------------------------------------------------------------

      A V E R A G E S   O V E R   50000 S T E P S

 NSTEP =   500000   TIME(PS) =    1020.000  TEMP(K) =   297.29  PRESS =     0.0
 Etot   =    -10420.7319  EKtot   =      2423.9569  EPtot      =    -12844.6888
 BOND   =        18.3858  ANGLE   =        32.9443  DIHED      =        19.2803
 1-4 NB =         8.3384  1-4 EEL =       -64.5418  VDWAALS    =      1907.4856
 EELEC  =    -14766.5815  EHBOND  =         0.0000  RESTRAINT  =         0.0000
 EKCMT  =         0.0000  VIRIAL  =         0.0000  VOLUME     =     41225.8367
                                                    Density    =         0.9884
 DV/DL  =        -6.3766
 ------------------------------------------------------------------------------

      R M S  F L U C T U A T I O N S

 NSTEP =   500000   TIME(PS) =    1020.000  TEMP(K) =     4.81  PRESS =     0.0
 Etot   =        71.5553  EKtot   =        39.1873  EPtot      =        58.5438
 BOND   =         3.8383  ANGLE   =         3.2958  DIHED      =         2.7756
 1-4 NB =         0.9329  1-4 EEL =         2.2268  VDWAALS    =        54.9995
 EELEC  =        90.6938  EHBOND  =         0.0000  RESTRAINT  =         0.0000
 EKCMT  =         0.0000  VIRIAL  =         0.0000  VOLUME     =       379.7324
                                                    Density    =         0.0092
 DV/DL  =         1.4757
 ------------------------------------------------------------------------------

      A V E R A G E S   O V E R   50000 S T E P S

 NSTEP =   500000   TIME(PS) =    1020.000  TEMP(K) =   297.29  PRESS =     0.0
 Etot   =    -10420.7319  EKtot   =      2423.9569  EPtot      =    -12844.6888
 BOND   =        18.3858  ANGLE   =        32.9443  DIHED      =        19.2803
 1-4 NB =         8.3384  1-4 EEL =       -64.5418  VDWAALS    =      1907.4856
 EELEC  =    -14766.5815  EHBOND  =         0.0000  RESTRAINT  =         0.0000
 EKCMT  =         0.0000  VIRIAL  =         0.0000  VOLUME     =     41225.8367
                                                    Density    =         0.9884
 DV/DL  =        -6.3766
 ------------------------------------------------------------------------------

      R M S  F L U C T U A T I O N S

 NSTEP =   500000   TIME(PS) =    1020.000  TEMP(K) =     4.81  PRESS =     0.0
 Etot   =        71.5553  EKtot   =        39.1873  EPtot      =        58.5438
 BOND   =         3.8383  ANGLE   =         3.2958  DIHED      =         2.7756
 1-4 NB =         0.9329  1-4 EEL =         2.2268  VDWAALS    =        54.9995
 EELEC  =        90.6938  EHBOND  =         0.0000  RESTRAINT  =         0.0000
 EKCMT  =         0.0000  VIRIAL  =         0.0000  VOLUME     =       379.7324
                                                    Density    =         0.0092
 DV/DL  =         1.4757
 ------------------------------------------------------------------------------

      DV/DL, AVERAGES OVER   50000 STEPS

 NSTEP =   500000   TIME(PS) =    1020.000  TEMP(K) =     4.81  PRESS =     0.0
 Etot   =         0.0000  EKtot   =         0.0000  EPtot      =        -6.3129
 BOND   =         0.0000  ANGLE   =         0.0000  DIHED      =         0.0000
 1-4 NB =         0.0000  1-4 EEL =         0.0000  VDWAALS    =         0.0000
 EELEC  =         1.5192  EHBOND  =         0.0000  RESTRAINT  =         0.0000
 EKCMT  =         0.0000  VIRIAL  =         0.0000  VOLUME     =         0.0000
                                                    Density    =         0.0000
 DV/DL  =        -6.3129
 ------------------------------------------------------------------------------

      A V E R A G E S   O V E R  500000 S T E P S

 NSTEP =   500000   TIME(PS) =    1020.000  TEMP(K) =   297.30  PRESS =     0.0
 Etot   =    -10417.2034  EKtot   =      2424.0116  EPtot      =    -12841.2150
 BOND   =        18.3889  ANGLE   =        32.6763  DIHED      =        18.9714
 1-4 NB =         7.9283  1-4 EEL =       -67.1991  VDWAALS    =      1900.7010
 EELEC  =    -14752.6818  EHBOND  =         0.0000  RESTRAINT  =         0.0000
 EKCMT  =         0.0000  VIRIAL  =         0.0000  VOLUME     =     41234.5846
                                                    Density    =         0.9882
 DV/DL  =        -6.3168
 ------------------------------------------------------------------------------

      R M S  F L U C T U A T I O N S

 NSTEP =   500000   TIME(PS) =    1020.000  TEMP(K) =     5.63  PRESS =     0.0
 Etot   =       113.3402  EKtot   =        45.8832  EPtot      =        86.1718
 BOND   =         3.8538  ANGLE   =         3.2962  DIHED      =         2.7741
 1-4 NB =         0.8803  1-4 EEL =         2.7333  VDWAALS    =        63.0844
 EELEC  =       129.3859  EHBOND  =         0.0000  RESTRAINT  =         0.0000
 EKCMT  =         0.0000  VIRIAL  =         0.0000  VOLUME     =       319.6917
                                                    Density    =         0.0077
 DV/DL  =         1.4397
 ------------------------------------------------------------------------------

      A V E R A G E S   O V E R  500000 S T E P S

 NSTEP =   500000   TIME(PS) =    1020.000  TEMP(K) =   297.30  PRESS =     0.0
 Etot   =    -10417.2034  EKtot   =      2424.0116  EPtot      =    -12841.2150
 BOND   =        18.3889  ANGLE   =        32.6763  DIHED      =        18.9714
 1-4 NB =         7.9283  1-4 EEL =       -67.1991  VDWAALS    =      1900.7010
 EELEC  =    -14752.6818  EHBOND  =         0.0000  RESTRAINT  =         0.0000
 EKCMT  =         0.0000  VIRIAL  =         0.0000  VOLUME     =     41234.5846
                                                    Density    =         0.9882
 DV/DL  =        -6.3168
 ------------------------------------------------------------------------------

      R M S  F L U C T U A T I O N S

 NSTEP =   500000   TIME(PS) =    1020.000  TEMP(K) =     5.63  PRESS =     0.0
 Etot   =       113.3402  EKtot   =        45.8832  EPtot      =        86.1718
 BOND   =         3.8538  ANGLE   =         3.2962  DIHED      =         2.7741
 1-4 NB =         0.8803  1-4 EEL =         2.7333  VDWAALS    =        63.0844
 EELEC  =       129.3859  EHBOND  =         0.0000  RESTRAINT  =         0.0000
 EKCMT  =         0.0000  VIRIAL  =         0.0000  VOLUME     =       319.6917
                                                    Density    =         0.0077
 DV/DL  =         1.4397
 ------------------------------------------------------------------------------

      DV/DL, AVERAGES OVER  500000 STEPS

 NSTEP =   500000   TIME(PS) =    1020.000  TEMP(K) =     5.63  PRESS =     0.0
 Etot   =         0.0000  EKtot   =         0.0000  EPtot      =        -6.2535
 BOND   =         0.0000  ANGLE   =         0.0000  DIHED      =         0.0000
 1-4 NB =         0.0000  1-4 EEL =         0.0000  VDWAALS    =         0.0000
 EELEC  =         1.5192  EHBOND  =         0.0000  RESTRAINT  =         0.0000
 EKCMT  =         0.0000  VIRIAL  =         0.0000  VOLUME     =         0.0000
                                                    Density    =         0.0000
 DV/DL  =        -6.2535
 ------------------------------------------------------------------------------
