-------------------------------------------------------
          Amber 16 PMEMD                              2016
          -------------------------------------------------------

  [-O]verwriting output

File Assignments:

 Here is the input file:

TI/FEP, NpT, vdW+bonded transformation
 &cntrl
 ! please adjust namelist parameters to your needs!

 ! parameters for general MD
 imin = 0, nstlim = 500000, irest = 1, ntx = 5, dt = 0.002,
 ntt = 3, temp0 = 298.0, gamma_ln = 2.0, ig = -1,
 ntb = 2,
 ntp = 1, barostat = 2, pres0 = 1.01325, taup = 2.0,
 ntwe = 1000, ntwx = 10000, ntpr = 1000, ntwr = 50000, ntave = 50000,
 ioutfm = 1, iwrap = 1, ntxo = 2,

 ! parameters for alchemical free energy simulation
 ntc = 2, ntf = 1,
 noshakemask = ':1,2',

 icfe = 1, ifsc = 1, clambda = 0.11505, scalpha = 0.5, scbeta = 12.0,
 ifmbar = 0, bar_intervall = 500, bar_l_min = 0.0, bar_l_max = 1.0,
 bar_l_incr = 0.1,   ! ntpr = bar_intervall for alchemical analysis tool

 timask1=':1', timask2=':2',
scmask1='',
scmask2=':2@C28,O29,C30,H50,H51,H52,H53',
 crgmask = '',
 /
 &ewald
 /

Note: ig = -1. Setting random seed to   250968 based on wallclock time in
      microseconds.

--------------------------------------------------------------------------------
   1.  RESOURCE   USE:
--------------------------------------------------------------------------------

 getting box info from netcdf restart file
 NATOM  =    5979 NTYPES =      16 NBONH =    5922 MBONA  =      59
 NTHETH =      86 MTHETA =      80 NPHIH =     132 MPHIA  =     124
 NHPARM =       0 NPARM  =       0 NNB   =    8319 NRES   =    1962
 NBONA  =      59 NTHETA =      80 NPHIA =     124 NUMBND =      21
 NUMANG =      31 NPTRA  =      21 NATYP =      17 NPHB   =       1
 IFBOX  =       1 NMXRS  =      53 IFCAP =       0 NEXTRA =       0
 NCOPY  =       0

     BOX TYPE: RECTILINEAR

--------------------------------------------------------------------------------
   2.  CONTROL  DATA  FOR  THE  RUN
--------------------------------------------------------------------------------

L0

General flags:
     imin    =       0, nmropt  =       0

Nature and format of input:
     ntx     =       5, irest   =       1, ntrx    =       1

Nature and format of output:
     ntxo    =       2, ntpr    =    1000, ntrx    =       1, ntwr    =   50000
     iwrap   =       1, ntwx    =   10000, ntwv    =       0, ntwe    =    1000
     ioutfm  =       1, ntwprt  =       0, idecomp =       0, rbornstat=      0

Potential function:
     ntf     =       1, ntb     =       2, igb     =       0, nsnb    =      25
     ipol    =       0, gbsa    =       0, iesp    =       0
     dielc   =   1.00000, cut     =   8.00000, intdiel =   1.00000

Frozen or restrained atoms:
     ibelly  =       0, ntr     =       0

Molecular dynamics:
     nstlim  =    500000, nscm    =      1000, nrespa  =         1
     t       =   0.00000, dt      =   0.00200, vlimit  =  -1.00000

Langevin dynamics temperature regulation:
     ig      =  250968
     temp0   = 298.00000, tempi   =   0.00000, gamma_ln=   2.00000

Pressure regulation:
     ntp     =       1
     pres0   =   1.01325, comp    =  44.60000, taup    =   2.00000
     Monte-Carlo Barostat:
     mcbarint  =     100

SHAKE:
     ntc     =       2, jfastw  =       0
     tol     =   0.00001

Free energy options:
     icfe    =       1, ifsc    =       1, klambda =       1
     clambda =  0.1150, scalpha =  0.5000, scbeta  = 12.0000
     sceeorder =       2
     dynlmb =  0.0000 logdvdl =       0

Ewald parameters:
     verbose =       0, ew_type =       0, nbflag  =       1, use_pme =       1
     vdwmeth =       1, eedmeth =       1, netfrc  =       1
     Box X =   40.877   Box Y =   43.011   Box Z =   34.124
     Alpha =   90.000   Beta  =   90.000   Gamma =   90.000
     NFFT1 =   48       NFFT2 =   48       NFFT3 =   36
     Cutoff=    8.000   Tol   =0.100E-04
     Ewald Coefficient =  0.34864
     Interpolation order =    4
     TI Mask 1 :1; matches     46 atoms
     TI Mask 2 :2; matches     53 atoms
     TI region 1:    5926 atoms
     TI region 2:    5933 atoms
     SC Mask 2 :2@C28,O29,C30,H50,H51,H52,H53; matches      7 atoms
 Noshake mask :1,2; matches      99 atoms.

--------------------------------------------------------------------------------
   3.  ATOMIC COORDINATES AND VELOCITIES
--------------------------------------------------------------------------------

L0
 begin time read from input coords =    20.000 ps

     Molecule     1 is partially softcore
     Molecule     2 is partially softcore
 Number of triangulated 3-point waters found:     1960
   Removing shake constraints from C27   L0    1 -- H44   L0    1
   Removing shake constraints from C27   L0    1 -- H45   L0    1
   Removing shake constraints from C27   L0    1 -- H46   L0    1
   Removing shake constraints from C25   L0    1 -- H43   L0    1
   Removing shake constraints from C21   L0    1 -- H42   L0    1
   Removing shake constraints from C20   L0    1 -- H39   L0    1
   Removing shake constraints from C20   L0    1 -- H40   L0    1
   Removing shake constraints from C20   L0    1 -- H41   L0    1
   Removing shake constraints from C16   L0    1 -- H37   L0    1
   Removing shake constraints from C16   L0    1 -- H38   L0    1
   Removing shake constraints from N13   L0    1 -- H36   L0    1
   Removing shake constraints from N9    L0    1 -- H35   L0    1
   Removing shake constraints from N9    L0    1 -- H34   L0    1
   Removing shake constraints from C7    L0    1 -- H33   L0    1
   Removing shake constraints from C2    L0    1 -- H31   L0    1
   Removing shake constraints from C2    L0    1 -- H32   L0    1
   Removing shake constraints from C1    L0    1 -- H28   L0    1
   Removing shake constraints from C1    L0    1 -- H29   L0    1
   Removing shake constraints from C1    L0    1 -- H30   L0    1
   Removing shake constraints from C30   INT   2 -- H52   INT   2
   Removing shake constraints from C30   INT   2 -- H53   INT   2
   Removing shake constraints from C30   INT   2 -- H51   INT   2
   Removing shake constraints from C26   INT   2 -- H47   INT   2
   Removing shake constraints from C26   INT   2 -- H48   INT   2
   Removing shake constraints from C26   INT   2 -- H49   INT   2
   Removing shake constraints from C24   INT   2 -- H46   INT   2
   Removing shake constraints from N27   INT   2 -- H50   INT   2
   Removing shake constraints from C21   INT   2 -- H45   INT   2
   Removing shake constraints from C20   INT   2 -- H42   INT   2
   Removing shake constraints from C20   INT   2 -- H43   INT   2
   Removing shake constraints from C20   INT   2 -- H44   INT   2
   Removing shake constraints from C16   INT   2 -- H40   INT   2
   Removing shake constraints from C16   INT   2 -- H41   INT   2
   Removing shake constraints from N13   INT   2 -- H39   INT   2
   Removing shake constraints from N9    INT   2 -- H38   INT   2
   Removing shake constraints from N9    INT   2 -- H37   INT   2
   Removing shake constraints from C7    INT   2 -- H36   INT   2
   Removing shake constraints from C2    INT   2 -- H34   INT   2
   Removing shake constraints from C2    INT   2 -- H35   INT   2
   Removing shake constraints from C1    INT   2 -- H31   INT   2
   Removing shake constraints from C1    INT   2 -- H32   INT   2
   Removing shake constraints from C1    INT   2 -- H33   INT   2
 WARNING: SHAKEn bond for atoms       69       96 is partially softcore.
 Coordinates for common atoms will be synchronized from V0.
 Consider using noshake mask or disabling SHAKE.

 Number of shake restraints removed in TI region  1 :       19
 Number of shake restraints removed in TI region  2 :       23

     Sum of charges for TI region  1 =   0.00001100
     Forcing neutrality...

     Sum of charges for TI region  2 =   0.00001100
     Forcing neutrality...

--------------------------------------------------------------------------------
   4.  RESULTS
 NSTEP =     1000   TIME(PS) =      22.000  TEMP(K) =   283.52  PRESS =     0.0
 Etot   =    -16329.7436  EKtot   =      3346.3796  EPtot      =    -19676.1232
 BOND   =        17.4763  ANGLE   =        16.3787  DIHED      =        14.9892
 1-4 NB =        15.6776  1-4 EEL =      -638.9391  VDWAALS    =      3044.0393
 EELEC  =    -22145.7452  EHBOND  =         0.0000  RESTRAINT  =         0.0000
 EKCMT  =         0.0000  VIRIAL  =         0.0000  VOLUME     =     61272.4392
                                                    Density    =         0.9688
 DV/DL  =        44.8295
 ------------------------------------------------------------------------------

      A V E R A G E S   O V E R   50000 S T E P S

 NSTEP =    50000   TIME(PS) =     120.000  TEMP(K) =   297.36  PRESS =     0.0
 Etot   =    -15537.0918  EKtot   =      3509.7631  EPtot      =    -19046.8549
 BOND   =        25.4063  ANGLE   =        20.3820  DIHED      =        17.6771
 1-4 NB =        14.7993  1-4 EEL =      -640.5351  VDWAALS    =      2797.2919
 EELEC  =    -21281.8764  EHBOND  =         0.0000  RESTRAINT  =         0.0000
 EKCMT  =         0.0000  VIRIAL  =         0.0000  VOLUME     =     60225.2045
                                                    Density    =         0.9857
 DV/DL  =        51.2590
 ------------------------------------------------------------------------------

      R M S  F L U C T U A T I O N S

 NSTEP =    50000   TIME(PS) =     120.000  TEMP(K) =    10.23  PRESS =     0.0
 Etot   =       403.7831  EKtot   =       120.7658  EPtot      =       292.9690
 BOND   =         3.9101  ANGLE   =         3.7051  DIHED      =         3.3969
 1-4 NB =         1.3822  1-4 EEL =         4.2645  VDWAALS    =       141.1326
 EELEC  =       420.2916  EHBOND  =         0.0000  RESTRAINT  =         0.0000
 EKCMT  =         0.0000  VIRIAL  =         0.0000  VOLUME     =       447.6103
                                                    Density    =         0.0073
 DV/DL  =        11.9141
 ------------------------------------------------------------------------------

      A V E R A G E S   O V E R   50000 S T E P S

 NSTEP =    50000   TIME(PS) =     120.000  TEMP(K) =   297.30  PRESS =     0.0
 Etot   =    -15531.5844  EKtot   =      3515.2705  EPtot      =    -19046.8549
 BOND   =        25.4063  ANGLE   =        20.3820  DIHED      =        17.6771
 1-4 NB =        14.7993  1-4 EEL =      -640.5351  VDWAALS    =      2797.2919
 EELEC  =    -21281.8764  EHBOND  =         0.0000  RESTRAINT  =         0.0000
 EKCMT  =         0.0000  VIRIAL  =         0.0000  VOLUME     =     60225.2045
                                                    Density    =         0.9869
 DV/DL  =        51.2590
 ------------------------------------------------------------------------------

      R M S  F L U C T U A T I O N S

 NSTEP =    50000   TIME(PS) =     120.000  TEMP(K) =    10.24  PRESS =     0.0
 Etot   =       404.0490  EKtot   =       121.0304  EPtot      =       292.9690
 BOND   =         3.9101  ANGLE   =         3.7051  DIHED      =         3.3969
 1-4 NB =         1.3822  1-4 EEL =         4.2645  VDWAALS    =       141.1326
 EELEC  =       420.2916  EHBOND  =         0.0000  RESTRAINT  =         0.0000
 EKCMT  =         0.0000  VIRIAL  =         0.0000  VOLUME     =       447.6103
                                                    Density    =         0.0073
 DV/DL  =        11.9141
 ------------------------------------------------------------------------------

      DV/DL, AVERAGES OVER   50000 STEPS

 NSTEP =    50000   TIME(PS) =     120.000  TEMP(K) =    10.24  PRESS =     0.0
 Etot   =         0.0000  EKtot   =         0.0000  EPtot      =        50.7522
 BOND   =         0.0000  ANGLE   =         0.0000  DIHED      =         0.0000
 1-4 NB =         0.0000  1-4 EEL =         0.0000  VDWAALS    =        -0.3349
 EELEC  =         0.0000  EHBOND  =         0.0000  RESTRAINT  =         0.0000
 EKCMT  =         0.0000  VIRIAL  =         0.0000  VOLUME     =         0.0000
                                                    Density    =         0.0000
 DV/DL  =        50.7522
 ------------------------------------------------------------------------------

      A V E R A G E S   O V E R   50000 S T E P S

 NSTEP =   100000   TIME(PS) =     220.000  TEMP(K) =   298.51  PRESS =     0.0
 Etot   =    -15493.0027  EKtot   =      3523.2374  EPtot      =    -19016.2400
 BOND   =        25.7083  ANGLE   =        19.6765  DIHED      =        18.4862
 1-4 NB =        14.9883  1-4 EEL =      -641.0578  VDWAALS    =      2779.6219
 EELEC  =    -21233.6635  EHBOND  =         0.0000  RESTRAINT  =         0.0000
 EKCMT  =         0.0000  VIRIAL  =         0.0000  VOLUME     =     60061.8031
                                                    Density    =         0.9883
 DV/DL  =        51.2211
 ------------------------------------------------------------------------------

      R M S  F L U C T U A T I O N S

 NSTEP =   100000   TIME(PS) =     220.000  TEMP(K) =     3.94  PRESS =     0.0
 Etot   =        80.1352  EKtot   =        46.5457  EPtot      =        66.2125
 BOND   =         3.8348  ANGLE   =         3.3890  DIHED      =         3.6043
 1-4 NB =         1.4612  1-4 EEL =         4.3785  VDWAALS    =        68.1301
 EELEC  =       108.9135  EHBOND  =         0.0000  RESTRAINT  =         0.0000
 EKCMT  =         0.0000  VIRIAL  =         0.0000  VOLUME     =       360.4888
                                                    Density    =         0.0059
 DV/DL  =        12.1085
 ------------------------------------------------------------------------------

      A V E R A G E S   O V E R   50000 S T E P S

 NSTEP =   100000   TIME(PS) =     220.000  TEMP(K) =   298.44  PRESS =     0.0
 Etot   =    -15487.5062  EKtot   =      3528.7339  EPtot      =    -19016.2400
 BOND   =        25.7083  ANGLE   =        19.6765  DIHED      =        18.4862
 1-4 NB =        14.9883  1-4 EEL =      -641.0578  VDWAALS    =      2779.6219
 EELEC  =    -21233.6635  EHBOND  =         0.0000  RESTRAINT  =         0.0000
 EKCMT  =         0.0000  VIRIAL  =         0.0000  VOLUME     =     60061.8031
                                                    Density    =         0.9896
 DV/DL  =        51.2211
 ------------------------------------------------------------------------------

      R M S  F L U C T U A T I O N S

 NSTEP =   100000   TIME(PS) =     220.000  TEMP(K) =     3.93  PRESS =     0.0
 Etot   =        80.1283  EKtot   =        46.5248  EPtot      =        66.2125
 BOND   =         3.8348  ANGLE   =         3.3890  DIHED      =         3.6043
 1-4 NB =         1.4612  1-4 EEL =         4.3785  VDWAALS    =        68.1301
 EELEC  =       108.9135  EHBOND  =         0.0000  RESTRAINT  =         0.0000
 EKCMT  =         0.0000  VIRIAL  =         0.0000  VOLUME     =       360.4888
                                                    Density    =         0.0060
 DV/DL  =        12.1085
 ------------------------------------------------------------------------------

      DV/DL, AVERAGES OVER   50000 STEPS

 NSTEP =   100000   TIME(PS) =     220.000  TEMP(K) =     3.93  PRESS =     0.0
 Etot   =         0.0000  EKtot   =         0.0000  EPtot      =        50.7091
 BOND   =         0.0000  ANGLE   =         0.0000  DIHED      =         0.0000
 1-4 NB =         0.0000  1-4 EEL =         0.0000  VDWAALS    =        -0.3358
 EELEC  =         0.0000  EHBOND  =         0.0000  RESTRAINT  =         0.0000
 EKCMT  =         0.0000  VIRIAL  =         0.0000  VOLUME     =         0.0000
                                                    Density    =         0.0000
 DV/DL  =        50.7091
 ------------------------------------------------------------------------------

      A V E R A G E S   O V E R   50000 S T E P S

 NSTEP =   500000   TIME(PS) =    1020.000  TEMP(K) =   298.56  PRESS =     0.0
 Etot   =    -15491.6248  EKtot   =      3523.8384  EPtot      =    -19015.4632
 BOND   =        25.3980  ANGLE   =        20.0300  DIHED      =        17.1232
 1-4 NB =        14.9948  1-4 EEL =      -640.6468  VDWAALS    =      2783.4729
 EELEC  =    -21235.8354  EHBOND  =         0.0000  RESTRAINT  =         0.0000
 EKCMT  =         0.0000  VIRIAL  =         0.0000  VOLUME     =     60057.9318
                                                    Density    =         0.9884
 DV/DL  =        51.3707
 ------------------------------------------------------------------------------

      R M S  F L U C T U A T I O N S

 NSTEP =   500000   TIME(PS) =    1020.000  TEMP(K) =     4.01  PRESS =     0.0
 Etot   =        88.5443  EKtot   =        47.3402  EPtot      =        71.0931
 BOND   =         3.6881  ANGLE   =         3.5392  DIHED      =         3.2648
 1-4 NB =         1.4253  1-4 EEL =         4.3574  VDWAALS    =        70.9305
 EELEC  =       115.5043  EHBOND  =         0.0000  RESTRAINT  =         0.0000
 EKCMT  =         0.0000  VIRIAL  =         0.0000  VOLUME     =       281.0252
                                                    Density    =         0.0046
 DV/DL  =        11.9757
 ------------------------------------------------------------------------------

      A V E R A G E S   O V E R   50000 S T E P S

 NSTEP =   500000   TIME(PS) =    1020.000  TEMP(K) =   298.49  PRESS =     0.0
 Etot   =    -15486.2167  EKtot   =      3529.2465  EPtot      =    -19015.4632
 BOND   =        25.3980  ANGLE   =        20.0300  DIHED      =        17.1232
 1-4 NB =        14.9948  1-4 EEL =      -640.6468  VDWAALS    =      2783.4729
 EELEC  =    -21235.8354  EHBOND  =         0.0000  RESTRAINT  =         0.0000
 EKCMT  =         0.0000  VIRIAL  =         0.0000  VOLUME     =     60057.9318
                                                    Density    =         0.9896
 DV/DL  =        51.3707
 ------------------------------------------------------------------------------

      R M S  F L U C T U A T I O N S

 NSTEP =   500000   TIME(PS) =    1020.000  TEMP(K) =     3.99  PRESS =     0.0
 Etot   =        88.3273  EKtot   =        47.2303  EPtot      =        71.0931
 BOND   =         3.6881  ANGLE   =         3.5392  DIHED      =         3.2648
 1-4 NB =         1.4253  1-4 EEL =         4.3574  VDWAALS    =        70.9305
 EELEC  =       115.5043  EHBOND  =         0.0000  RESTRAINT  =         0.0000
 EKCMT  =         0.0000  VIRIAL  =         0.0000  VOLUME     =       281.0252
                                                    Density    =         0.0046
 DV/DL  =        11.9757
 ------------------------------------------------------------------------------

      DV/DL, AVERAGES OVER   50000 STEPS

 NSTEP =   500000   TIME(PS) =    1020.000  TEMP(K) =     3.99  PRESS =     0.0
 Etot   =         0.0000  EKtot   =         0.0000  EPtot      =        50.8506
 BOND   =         0.0000  ANGLE   =         0.0000  DIHED      =         0.0000
 1-4 NB =         0.0000  1-4 EEL =         0.0000  VDWAALS    =        -0.3359
 EELEC  =         0.0000  EHBOND  =         0.0000  RESTRAINT  =         0.0000
 EKCMT  =         0.0000  VIRIAL  =         0.0000  VOLUME     =         0.0000
                                                    Density    =         0.0000
 DV/DL  =        50.8506
 ------------------------------------------------------------------------------

      A V E R A G E S   O V E R  500000 S T E P S

 NSTEP =   500000   TIME(PS) =    1020.000  TEMP(K) =   298.36  PRESS =     0.0
 Etot   =    -15501.7374  EKtot   =      3521.4992  EPtot      =    -19023.2366
 BOND   =        25.5837  ANGLE   =        20.0020  DIHED      =        17.2220
 1-4 NB =        14.9830  1-4 EEL =      -640.1977  VDWAALS    =      2785.4411
 EELEC  =    -21246.2708  EHBOND  =         0.0000  RESTRAINT  =         0.0000
 EKCMT  =         0.0000  VIRIAL  =         0.0000  VOLUME     =     60070.2416
                                                    Density    =         0.9882
 DV/DL  =        51.1186
 ------------------------------------------------------------------------------

      R M S  F L U C T U A T I O N S

 NSTEP =   500000   TIME(PS) =    1020.000  TEMP(K) =     4.91  PRESS =     0.0
 Etot   =       149.6671  EKtot   =        57.9145  EPtot      =       112.7206
 BOND   =         3.8170  ANGLE   =         3.5307  DIHED      =         3.4869
 1-4 NB =         1.4369  1-4 EEL =         4.3154  VDWAALS    =        79.2367
 EELEC  =       169.1012  EHBOND  =         0.0000  RESTRAINT  =         0.0000
 EKCMT  =         0.0000  VIRIAL  =         0.0000  VOLUME     =       380.7412
                                                    Density    =         0.0063
 DV/DL  =        12.0147
 ------------------------------------------------------------------------------

      A V E R A G E S   O V E R  500000 S T E P S

 NSTEP =   500000   TIME(PS) =    1020.000  TEMP(K) =   298.30  PRESS =     0.0
 Etot   =    -15496.2080  EKtot   =      3527.0286  EPtot      =    -19023.2366
 BOND   =        25.5837  ANGLE   =        20.0020  DIHED      =        17.2220
 1-4 NB =        14.9830  1-4 EEL =      -640.1977  VDWAALS    =      2785.4411
 EELEC  =    -21246.2708  EHBOND  =         0.0000  RESTRAINT  =         0.0000
 EKCMT  =         0.0000  VIRIAL  =         0.0000  VOLUME     =     60070.2416
                                                    Density    =         0.9894
 DV/DL  =        51.1186
 ------------------------------------------------------------------------------

      R M S  F L U C T U A T I O N S

 NSTEP =   500000   TIME(PS) =    1020.000  TEMP(K) =     4.90  PRESS =     0.0
 Etot   =       149.7589  EKtot   =        57.9846  EPtot      =       112.7206
 BOND   =         3.8170  ANGLE   =         3.5307  DIHED      =         3.4869
 1-4 NB =         1.4369  1-4 EEL =         4.3154  VDWAALS    =        79.2367
 EELEC  =       169.1012  EHBOND  =         0.0000  RESTRAINT  =         0.0000
 EKCMT  =         0.0000  VIRIAL  =         0.0000  VOLUME     =       380.7412
                                                    Density    =         0.0063
 DV/DL  =        12.0147
 ------------------------------------------------------------------------------

      DV/DL, AVERAGES OVER  500000 STEPS

 NSTEP =   500000   TIME(PS) =    1020.000  TEMP(K) =     4.90  PRESS =     0.0
 Etot   =         0.0000  EKtot   =         0.0000  EPtot      =        50.6066
 BOND   =         0.0000  ANGLE   =         0.0000  DIHED      =         0.0000
 1-4 NB =         0.0000  1-4 EEL =         0.0000  VDWAALS    =        -0.3358
 EELEC  =         0.0000  EHBOND  =         0.0000  RESTRAINT  =         0.0000
 EKCMT  =         0.0000  VIRIAL  =         0.0000  VOLUME     =         0.0000
                                                    Density    =         0.0000
 DV/DL  =        50.6066
 ------------------------------------------------------------------------------
