-------------------------------------------------------
          Amber 16 PMEMD                              2016
          -------------------------------------------------------

  [-O]verwriting output

File Assignments:

 Here is the input file:

TI/FEP, NpT, recharge transformation
 &cntrl
 ! please adjust namelist parameters to your needs!

 ! parameters for general MD
 imin = 0, nstlim = 500000, irest = 1, ntx = 5, dt = 0.002,
 ntt = 3, temp0 = 298.0, gamma_ln = 2.0, ig = -1,
 ntb = 2,
 ntp = 1, barostat = 2, pres0 = 1.01325, taup = 2.0,
 ntwe = 100, ntwx = 10000, ntpr = 1000, ntwr = 50000, ntave = 50000,
 ioutfm = 1, iwrap = 1, ntxo = 2,

 ! parameters for alchemical free energy simulation
 ntc = 2, ntf = 1,
 noshakemask = ':1,2',

 icfe = 1, ifsc = 0, clambda = 0.75, scalpha = 0.5, scbeta = 12.0,
 ifmbar = 1, mbar_lambda = 0.00 0.25 0.50 0.75 1.00,
 mbar_states = 5, bar_intervall = 1000,   ! ntpr = bar_intervall for alchemical

 timask1=':1', timask2=':2',
scmask1='',
scmask2='',
 crgmask = ':1@Cl18',
 /
 &ewald
 /

Note: ig = -1. Setting random seed to   922222 based on wallclock time in
      microseconds.

--------------------------------------------------------------------------------
   1.  RESOURCE   USE:
--------------------------------------------------------------------------------

 getting box info from netcdf restart file
 NATOM  =    4115 NTYPES =      13 NBONH =    4065 MBONA  =      56
 NTHETH =      76 MTHETA =      86 NPHIH =     150 MPHIA  =     136
 NHPARM =       0 NPARM  =       0 NNB   =    5842 NRES   =    1345
 NBONA  =      56 NTHETA =      86 NPHIA =     136 NUMBND =      22
 NUMANG =      35 NPTRA  =      14 NATYP =      17 NPHB   =       1
 IFBOX  =       1 NMXRS  =      43 IFCAP =       0 NEXTRA =       0
 NCOPY  =       0

     BOX TYPE: RECTILINEAR

--------------------------------------------------------------------------------
   2.  CONTROL  DATA  FOR  THE  RUN
--------------------------------------------------------------------------------

L1

General flags:
     imin    =       0, nmropt  =       0

Nature and format of input:
     ntx     =       5, irest   =       1, ntrx    =       1

Nature and format of output:
     ntxo    =       2, ntpr    =    1000, ntrx    =       1, ntwr    =   50000
     iwrap   =       1, ntwx    =   10000, ntwv    =       0, ntwe    =     100
     ioutfm  =       1, ntwprt  =       0, idecomp =       0, rbornstat=      0

Potential function:
     ntf     =       1, ntb     =       2, igb     =       0, nsnb    =      25
     ipol    =       0, gbsa    =       0, iesp    =       0
     dielc   =   1.00000, cut     =   8.00000, intdiel =   1.00000

Frozen or restrained atoms:
     ibelly  =       0, ntr     =       0

Molecular dynamics:
     nstlim  =    500000, nscm    =      1000, nrespa  =         1
     t       =   0.00000, dt      =   0.00200, vlimit  =  -1.00000

Langevin dynamics temperature regulation:
     ig      =  922222
     temp0   = 298.00000, tempi   =   0.00000, gamma_ln=   2.00000

Pressure regulation:
     ntp     =       1
     pres0   =   1.01325, comp    =  44.60000, taup    =   2.00000
     Monte-Carlo Barostat:
     mcbarint  =     100

SHAKE:
     ntc     =       2, jfastw  =       0
     tol     =   0.00001

Free energy options:
     icfe    =       1, ifsc    =       0, klambda =       1
     clambda =  0.7500, scalpha =  0.5000, scbeta  = 12.0000
     sceeorder =       2
     dynlmb =  0.0000 logdvdl =       0

FEP MBAR options:
     ifmbar  =       1,  bar_intervall =     1000
     mbar_states =       5

Ewald parameters:
     verbose =       0, ew_type =       0, nbflag  =       1, use_pme =       1
     vdwmeth =       1, eedmeth =       1, netfrc  =       1
     Box X =   32.703   Box Y =   37.439   Box Z =   33.758
     Alpha =   90.000   Beta  =   90.000   Gamma =   90.000
     NFFT1 =   36       NFFT2 =   40       NFFT3 =   36
     Cutoff=    8.000   Tol   =0.100E-04
     Ewald Coefficient =  0.34864
     Interpolation order =    4
     TI Mask 1 :1; matches     43 atoms
     TI Mask 2 :2; matches     43 atoms
     TI region 1:    4072 atoms
     TI region 2:    4072 atoms
Removing charge of      -0.0609 from atom      43
Total charge of  -0.06094600 removed from       1 atoms

    MBAR - lambda values considered:
       5 total:  0.0000 0.2500 0.5000 0.7500 1.0000
    Extra energies will be computed    500 times.
     Checking for mismatched coordinates.
 Noshake mask :1,2; matches      86 atoms.

--------------------------------------------------------------------------------
   3.  ATOMIC COORDINATES AND VELOCITIES
--------------------------------------------------------------------------------

L1
 begin time read from input coords =    20.000 ps

 Number of triangulated 3-point waters found:     1343
   Removing shake constraints from C23   L1    1 -- H41   L1    1
   Removing shake constraints from C23   L1    1 -- H42   L1    1
   Removing shake constraints from C22   L1    1 -- H39   L1    1
   Removing shake constraints from C22   L1    1 -- H40   L1    1
   Removing shake constraints from C21   L1    1 -- H38   L1    1
   Removing shake constraints from C20   L1    1 -- H37   L1    1
   Removing shake constraints from C13   L1    1 -- H34   L1    1
   Removing shake constraints from C16   L1    1 -- H35   L1    1
   Removing shake constraints from C19   L1    1 -- H36   L1    1
   Removing shake constraints from C10   L1    1 -- H33   L1    1
   Removing shake constraints from C9    L1    1 -- H32   L1    1
   Removing shake constraints from C8    L1    1 -- H31   L1    1
   Removing shake constraints from N5    L1    1 -- H30   L1    1
   Removing shake constraints from N4    L1    1 -- H43   L1    1
   Removing shake constraints from N4    L1    1 -- H29   L1    1
   Removing shake constraints from C1    L1    1 -- H26   L1    1
   Removing shake constraints from C1    L1    1 -- H27   L1    1
   Removing shake constraints from C1    L1    1 -- H28   L1    1
   Removing shake constraints from C23   L1    2 -- H41   L1    2
   Removing shake constraints from C23   L1    2 -- H42   L1    2
   Removing shake constraints from C22   L1    2 -- H39   L1    2
   Removing shake constraints from C22   L1    2 -- H40   L1    2
   Removing shake constraints from C21   L1    2 -- H38   L1    2
   Removing shake constraints from C20   L1    2 -- H37   L1    2
   Removing shake constraints from C13   L1    2 -- H34   L1    2
   Removing shake constraints from C16   L1    2 -- H35   L1    2
   Removing shake constraints from C19   L1    2 -- H36   L1    2
   Removing shake constraints from C10   L1    2 -- H33   L1    2
   Removing shake constraints from C9    L1    2 -- H32   L1    2
   Removing shake constraints from C8    L1    2 -- H31   L1    2
   Removing shake constraints from N5    L1    2 -- H30   L1    2
   Removing shake constraints from N4    L1    2 -- H43   L1    2
   Removing shake constraints from N4    L1    2 -- H29   L1    2
   Removing shake constraints from C1    L1    2 -- H26   L1    2
   Removing shake constraints from C1    L1    2 -- H27   L1    2
   Removing shake constraints from C1    L1    2 -- H28   L1    2
 Number of shake restraints removed:       36

     Sum of charges for TI region  1 =   1.06096699
     Assuming uniform neutralizing plasma

     Sum of charges for TI region  2 =   1.00002099
     Assuming uniform neutralizing plasma

--------------------------------------------------------------------------------
   4.  RESULTS
 NSTEP =     1000   TIME(PS) =      22.000  TEMP(K) =   287.99  PRESS =     0.0
 Etot   =    -10924.9847  EKtot   =      2347.8135  EPtot      =    -13272.7982
 BOND   =        13.8622  ANGLE   =        28.5700  DIHED      =        19.4117
 1-4 NB =         7.3983  1-4 EEL =       -73.7095  VDWAALS    =      2078.6128
 EELEC  =    -15346.9437  EHBOND  =         0.0000  RESTRAINT  =         0.0000
 EKCMT  =         0.0000  VIRIAL  =         0.0000  VOLUME     =     41914.1819
                                                    Density    =         0.9735
 DV/DL  =        -1.6146
 ------------------------------------------------------------------------------

      A V E R A G E S   O V E R   50000 S T E P S

 NSTEP =    50000   TIME(PS) =     120.000  TEMP(K) =   296.44  PRESS =     0.0
 Etot   =    -10453.3767  EKtot   =      2416.7012  EPtot      =    -12870.0779
 BOND   =        18.1050  ANGLE   =        32.0152  DIHED      =        19.0226
 1-4 NB =         7.9663  1-4 EEL =       -71.3235  VDWAALS    =      1909.1033
 EELEC  =    -14784.9668  EHBOND  =         0.0000  RESTRAINT  =         0.0000
 EKCMT  =         0.0000  VIRIAL  =         0.0000  VOLUME     =     41223.6382
                                                    Density    =         0.9898
 DV/DL  =        -1.9338
 ------------------------------------------------------------------------------

      R M S  F L U C T U A T I O N S

 NSTEP =    50000   TIME(PS) =     120.000  TEMP(K) =    10.71  PRESS =     0.0
 Etot   =       277.0117  EKtot   =        87.3358  EPtot      =       198.9628
 BOND   =         3.9078  ANGLE   =         3.3154  DIHED      =         2.7252
 1-4 NB =         0.8598  1-4 EEL =         1.9264  VDWAALS    =       102.1274
 EELEC  =       288.5269  EHBOND  =         0.0000  RESTRAINT  =         0.0000
 EKCMT  =         0.0000  VIRIAL  =         0.0000  VOLUME     =       279.3226
                                                    Density    =         0.0067
 DV/DL  =         0.5012
 ------------------------------------------------------------------------------

      A V E R A G E S   O V E R   50000 S T E P S

 NSTEP =    50000   TIME(PS) =     120.000  TEMP(K) =   296.44  PRESS =     0.0
 Etot   =    -10453.3767  EKtot   =      2416.7012  EPtot      =    -12870.0779
 BOND   =        18.1050  ANGLE   =        32.0152  DIHED      =        19.0226
 1-4 NB =         7.9663  1-4 EEL =       -71.3235  VDWAALS    =      1909.1033
 EELEC  =    -14784.9668  EHBOND  =         0.0000  RESTRAINT  =         0.0000
 EKCMT  =         0.0000  VIRIAL  =         0.0000  VOLUME     =     41223.6382
                                                    Density    =         0.9898
 DV/DL  =        -1.9338
 ------------------------------------------------------------------------------

      R M S  F L U C T U A T I O N S

 NSTEP =    50000   TIME(PS) =     120.000  TEMP(K) =    10.71  PRESS =     0.0
 Etot   =       277.0117  EKtot   =        87.3358  EPtot      =       198.9628
 BOND   =         3.9078  ANGLE   =         3.3154  DIHED      =         2.7252
 1-4 NB =         0.8598  1-4 EEL =         1.9264  VDWAALS    =       102.1274
 EELEC  =       288.5269  EHBOND  =         0.0000  RESTRAINT  =         0.0000
 EKCMT  =         0.0000  VIRIAL  =         0.0000  VOLUME     =       279.3226
                                                    Density    =         0.0067
 DV/DL  =         0.5012
 ------------------------------------------------------------------------------

      DV/DL, AVERAGES OVER   50000 STEPS

 NSTEP =    50000   TIME(PS) =     120.000  TEMP(K) =    10.71  PRESS =     0.0
 Etot   =         0.0000  EKtot   =         0.0000  EPtot      =        -1.9146
 BOND   =         0.0000  ANGLE   =         0.0000  DIHED      =         0.0000
 1-4 NB =         0.0000  1-4 EEL =         0.0000  VDWAALS    =         0.0000
 EELEC  =        -0.2295  EHBOND  =         0.0000  RESTRAINT  =         0.0000
 EKCMT  =         0.0000  VIRIAL  =         0.0000  VOLUME     =         0.0000
                                                    Density    =         0.0000
 DV/DL  =        -1.9146
 ------------------------------------------------------------------------------

      A V E R A G E S   O V E R   50000 S T E P S

 NSTEP =   100000   TIME(PS) =     220.000  TEMP(K) =   296.97  PRESS =     0.0
 Etot   =    -10430.5599  EKtot   =      2421.0694  EPtot      =    -12851.6293
 BOND   =        18.2874  ANGLE   =        32.2119  DIHED      =        18.9445
 1-4 NB =         7.9472  1-4 EEL =       -71.1483  VDWAALS    =      1901.3349
 EELEC  =    -14759.2069  EHBOND  =         0.0000  RESTRAINT  =         0.0000
 EKCMT  =         0.0000  VIRIAL  =         0.0000  VOLUME     =     41175.4607
                                                    Density    =         0.9910
 DV/DL  =        -1.8839
 ------------------------------------------------------------------------------

      R M S  F L U C T U A T I O N S

 NSTEP =   100000   TIME(PS) =     220.000  TEMP(K) =     4.59  PRESS =     0.0
 Etot   =        64.3011  EKtot   =        37.4473  EPtot      =        53.0747
 BOND   =         3.6936  ANGLE   =         3.2747  DIHED      =         2.8413
 1-4 NB =         0.8652  1-4 EEL =         1.8901  VDWAALS    =        55.7076
 EELEC  =        86.0293  EHBOND  =         0.0000  RESTRAINT  =         0.0000
 EKCMT  =         0.0000  VIRIAL  =         0.0000  VOLUME     =       277.9129
                                                    Density    =         0.0067
 DV/DL  =         0.4975
 ------------------------------------------------------------------------------

      A V E R A G E S   O V E R   50000 S T E P S

 NSTEP =   100000   TIME(PS) =     220.000  TEMP(K) =   296.97  PRESS =     0.0
 Etot   =    -10430.5599  EKtot   =      2421.0694  EPtot      =    -12851.6293
 BOND   =        18.2874  ANGLE   =        32.2119  DIHED      =        18.9445
 1-4 NB =         7.9472  1-4 EEL =       -71.1483  VDWAALS    =      1901.3349
 EELEC  =    -14759.2069  EHBOND  =         0.0000  RESTRAINT  =         0.0000
 EKCMT  =         0.0000  VIRIAL  =         0.0000  VOLUME     =     41175.4607
                                                    Density    =         0.9910
 DV/DL  =        -1.8839
 ------------------------------------------------------------------------------

      R M S  F L U C T U A T I O N S

 NSTEP =   100000   TIME(PS) =     220.000  TEMP(K) =     4.59  PRESS =     0.0
 Etot   =        64.3011  EKtot   =        37.4473  EPtot      =        53.0747
 BOND   =         3.6936  ANGLE   =         3.2747  DIHED      =         2.8413
 1-4 NB =         0.8652  1-4 EEL =         1.8901  VDWAALS    =        55.7076
 EELEC  =        86.0293  EHBOND  =         0.0000  RESTRAINT  =         0.0000
 EKCMT  =         0.0000  VIRIAL  =         0.0000  VOLUME     =       277.9129
                                                    Density    =         0.0067
 DV/DL  =         0.4975
 ------------------------------------------------------------------------------

      DV/DL, AVERAGES OVER   50000 STEPS

 NSTEP =   100000   TIME(PS) =     220.000  TEMP(K) =     4.59  PRESS =     0.0
 Etot   =         0.0000  EKtot   =         0.0000  EPtot      =        -1.8650
 BOND   =         0.0000  ANGLE   =         0.0000  DIHED      =         0.0000
 1-4 NB =         0.0000  1-4 EEL =         0.0000  VDWAALS    =         0.0000
 EELEC  =        -0.2295  EHBOND  =         0.0000  RESTRAINT  =         0.0000
 EKCMT  =         0.0000  VIRIAL  =         0.0000  VOLUME     =         0.0000
                                                    Density    =         0.0000
 DV/DL  =        -1.8650
 ------------------------------------------------------------------------------

      A V E R A G E S   O V E R   50000 S T E P S

 NSTEP =   500000   TIME(PS) =    1020.000  TEMP(K) =   297.23  PRESS =     0.0
 Etot   =    -10420.6573  EKtot   =      2423.1412  EPtot      =    -12843.7985
 BOND   =        18.5108  ANGLE   =        32.6174  DIHED      =        19.4643
 1-4 NB =         7.9027  1-4 EEL =       -74.2663  VDWAALS    =      1898.1098
 EELEC  =    -14746.1372  EHBOND  =         0.0000  RESTRAINT  =         0.0000
 EKCMT  =         0.0000  VIRIAL  =         0.0000  VOLUME     =     41234.8405
                                                    Density    =         0.9895
 DV/DL  =        -1.8867
 ------------------------------------------------------------------------------

      R M S  F L U C T U A T I O N S

 NSTEP =   500000   TIME(PS) =    1020.000  TEMP(K) =     4.61  PRESS =     0.0
 Etot   =        62.9985  EKtot   =        37.6139  EPtot      =        52.4423
 BOND   =         3.9069  ANGLE   =         3.2622  DIHED      =         2.8570
 1-4 NB =         0.8600  1-4 EEL =         2.3684  VDWAALS    =        56.7672
 EELEC  =        87.8291  EHBOND  =         0.0000  RESTRAINT  =         0.0000
 EKCMT  =         0.0000  VIRIAL  =         0.0000  VOLUME     =       262.0434
                                                    Density    =         0.0063
 DV/DL  =         0.5101
 ------------------------------------------------------------------------------

      A V E R A G E S   O V E R   50000 S T E P S

 NSTEP =   500000   TIME(PS) =    1020.000  TEMP(K) =   297.23  PRESS =     0.0
 Etot   =    -10420.6573  EKtot   =      2423.1412  EPtot      =    -12843.7985
 BOND   =        18.5108  ANGLE   =        32.6174  DIHED      =        19.4643
 1-4 NB =         7.9027  1-4 EEL =       -74.2663  VDWAALS    =      1898.1098
 EELEC  =    -14746.1372  EHBOND  =         0.0000  RESTRAINT  =         0.0000
 EKCMT  =         0.0000  VIRIAL  =         0.0000  VOLUME     =     41234.8405
                                                    Density    =         0.9895
 DV/DL  =        -1.8867
 ------------------------------------------------------------------------------

      R M S  F L U C T U A T I O N S

 NSTEP =   500000   TIME(PS) =    1020.000  TEMP(K) =     4.61  PRESS =     0.0
 Etot   =        62.9985  EKtot   =        37.6139  EPtot      =        52.4423
 BOND   =         3.9069  ANGLE   =         3.2622  DIHED      =         2.8570
 1-4 NB =         0.8600  1-4 EEL =         2.3684  VDWAALS    =        56.7672
 EELEC  =        87.8291  EHBOND  =         0.0000  RESTRAINT  =         0.0000
 EKCMT  =         0.0000  VIRIAL  =         0.0000  VOLUME     =       262.0434
                                                    Density    =         0.0063
 DV/DL  =         0.5101
 ------------------------------------------------------------------------------

      DV/DL, AVERAGES OVER   50000 STEPS

 NSTEP =   500000   TIME(PS) =    1020.000  TEMP(K) =     4.61  PRESS =     0.0
 Etot   =         0.0000  EKtot   =         0.0000  EPtot      =        -1.8679
 BOND   =         0.0000  ANGLE   =         0.0000  DIHED      =         0.0000
 1-4 NB =         0.0000  1-4 EEL =         0.0000  VDWAALS    =         0.0000
 EELEC  =        -0.2295  EHBOND  =         0.0000  RESTRAINT  =         0.0000
 EKCMT  =         0.0000  VIRIAL  =         0.0000  VOLUME     =         0.0000
                                                    Density    =         0.0000
 DV/DL  =        -1.8679
 ------------------------------------------------------------------------------

      A V E R A G E S   O V E R  500000 S T E P S

 NSTEP =   500000   TIME(PS) =    1020.000  TEMP(K) =   297.36  PRESS =     0.0
 Etot   =    -10419.5099  EKtot   =      2424.1855  EPtot      =    -12843.6954
 BOND   =        18.3380  ANGLE   =        32.5480  DIHED      =        19.0442
 1-4 NB =         7.9647  1-4 EEL =       -72.8951  VDWAALS    =      1898.7190
 EELEC  =    -14747.4142  EHBOND  =         0.0000  RESTRAINT  =         0.0000
 EKCMT  =         0.0000  VIRIAL  =         0.0000  VOLUME     =     41250.5960
                                                    Density    =         0.9892
 DV/DL  =        -1.9132
 ------------------------------------------------------------------------------

      R M S  F L U C T U A T I O N S

 NSTEP =   500000   TIME(PS) =    1020.000  TEMP(K) =     5.58  PRESS =     0.0
 Etot   =       108.1790  EKtot   =        45.4526  EPtot      =        82.0280
 BOND   =         3.8041  ANGLE   =         3.3077  DIHED      =         2.7612
 1-4 NB =         0.8817  1-4 EEL =         2.7725  VDWAALS    =        63.1932
 EELEC  =       125.3880  EHBOND  =         0.0000  RESTRAINT  =         0.0000
 EKCMT  =         0.0000  VIRIAL  =         0.0000  VOLUME     =       307.2294
                                                    Density    =         0.0074
 DV/DL  =         0.5063
 ------------------------------------------------------------------------------

      A V E R A G E S   O V E R  500000 S T E P S

 NSTEP =   500000   TIME(PS) =    1020.000  TEMP(K) =   297.36  PRESS =     0.0
 Etot   =    -10419.5099  EKtot   =      2424.1855  EPtot      =    -12843.6954
 BOND   =        18.3380  ANGLE   =        32.5480  DIHED      =        19.0442
 1-4 NB =         7.9647  1-4 EEL =       -72.8951  VDWAALS    =      1898.7190
 EELEC  =    -14747.4142  EHBOND  =         0.0000  RESTRAINT  =         0.0000
 EKCMT  =         0.0000  VIRIAL  =         0.0000  VOLUME     =     41250.5960
                                                    Density    =         0.9892
 DV/DL  =        -1.9132
 ------------------------------------------------------------------------------

      R M S  F L U C T U A T I O N S

 NSTEP =   500000   TIME(PS) =    1020.000  TEMP(K) =     5.58  PRESS =     0.0
 Etot   =       108.1790  EKtot   =        45.4526  EPtot      =        82.0280
 BOND   =         3.8041  ANGLE   =         3.3077  DIHED      =         2.7612
 1-4 NB =         0.8817  1-4 EEL =         2.7725  VDWAALS    =        63.1932
 EELEC  =       125.3880  EHBOND  =         0.0000  RESTRAINT  =         0.0000
 EKCMT  =         0.0000  VIRIAL  =         0.0000  VOLUME     =       307.2294
                                                    Density    =         0.0074
 DV/DL  =         0.5063
 ------------------------------------------------------------------------------

      DV/DL, AVERAGES OVER  500000 STEPS

 NSTEP =   500000   TIME(PS) =    1020.000  TEMP(K) =     5.58  PRESS =     0.0
 Etot   =         0.0000  EKtot   =         0.0000  EPtot      =        -1.8940
 BOND   =         0.0000  ANGLE   =         0.0000  DIHED      =         0.0000
 1-4 NB =         0.0000  1-4 EEL =         0.0000  VDWAALS    =         0.0000
 EELEC  =        -0.2295  EHBOND  =         0.0000  RESTRAINT  =         0.0000
 EKCMT  =         0.0000  VIRIAL  =         0.0000  VOLUME     =         0.0000
                                                    Density    =         0.0000
 DV/DL  =        -1.8940
 ------------------------------------------------------------------------------
