-------------------------------------------------------
          Amber 16 PMEMD                              2016
          -------------------------------------------------------

  [-O]verwriting output

File Assignments:

 Here is the input file:

TI/FEP, NpT, vdW+bonded transformation
 &cntrl
 ! please adjust namelist parameters to your needs!

 ! parameters for general MD
 imin = 0, nstlim = 500000, irest = 1, ntx = 5, dt = 0.002,
 ntt = 3, temp0 = 298.0, gamma_ln = 2.0, ig = -1,
 ntb = 2,
 ntp = 1, barostat = 2, pres0 = 1.01325, taup = 2.0,
 ntwe = 100, ntwx = 10000, ntpr = 1000, ntwr = 50000, ntave = 50000,
 ioutfm = 1, iwrap = 1, ntxo = 2,

 ! parameters for alchemical free energy simulation
 ntc = 2, ntf = 1,
 noshakemask = ':1,2',

 icfe = 1, ifsc = 1, clambda = 1.0, scalpha = 0.5, scbeta = 12.0,
 ifmbar = 1, mbar_lambda = 0.0 0.0479 0.1150 0.2063 0.3160 0.4373 0.5626 0.6839
 mbar_states = 12, bar_intervall = 1000,   ! ntpr = bar_intervall for alchemica

 timask1=':1', timask2=':2',
scmask1=':1@H34',
scmask2=':2@Cl18',
 crgmask = ':1@H34 | :2@Cl18',
 /
 &ewald
 /

Note: ig = -1. Setting random seed to   437947 based on wallclock time in
      microseconds.

--------------------------------------------------------------------------------
   1.  RESOURCE   USE:
--------------------------------------------------------------------------------

 getting box info from netcdf restart file
 NATOM  =   46594 NTYPES =      28 NBONH =   43475 MBONA  =    3194
 NTHETH =    6827 MTHETA =    4353 NPHIH =   13979 MPHIA  =   13703
 NHPARM =       0 NPARM  =       0 NNB   =   87745 NRES   =   13889
 NBONA  =    3194 NTHETA =    4353 NPHIA =   13703 NUMBND =      89
 NUMANG =     195 NPTRA  =     203 NATYP =      50 NPHB   =       1
 IFBOX  =       1 NMXRS  =      43 IFCAP =       0 NEXTRA =       0
 NCOPY  =       0

     BOX TYPE: RECTILINEAR

--------------------------------------------------------------------------------
   2.  CONTROL  DATA  FOR  THE  RUN
--------------------------------------------------------------------------------

L0

General flags:
     imin    =       0, nmropt  =       0

Nature and format of input:
     ntx     =       5, irest   =       1, ntrx    =       1

Nature and format of output:
     ntxo    =       2, ntpr    =    1000, ntrx    =       1, ntwr    =   50000
     iwrap   =       1, ntwx    =   10000, ntwv    =       0, ntwe    =     100
     ioutfm  =       1, ntwprt  =       0, idecomp =       0, rbornstat=      0

Potential function:
     ntf     =       1, ntb     =       2, igb     =       0, nsnb    =      25
     ipol    =       0, gbsa    =       0, iesp    =       0
     dielc   =   1.00000, cut     =   8.00000, intdiel =   1.00000

Frozen or restrained atoms:
     ibelly  =       0, ntr     =       0

Molecular dynamics:
     nstlim  =    500000, nscm    =      1000, nrespa  =         1
     t       =   0.00000, dt      =   0.00200, vlimit  =  -1.00000

Langevin dynamics temperature regulation:
     ig      =  437947
     temp0   = 298.00000, tempi   =   0.00000, gamma_ln=   2.00000

Pressure regulation:
     ntp     =       1
     pres0   =   1.01325, comp    =  44.60000, taup    =   2.00000
     Monte-Carlo Barostat:
     mcbarint  =     100

SHAKE:
     ntc     =       2, jfastw  =       0
     tol     =   0.00001

Free energy options:
     icfe    =       1, ifsc    =       1, klambda =       1
     clambda =  1.0000, scalpha =  0.5000, scbeta  = 12.0000
     sceeorder =       2
     dynlmb =  0.0000 logdvdl =       0

FEP MBAR options:
     ifmbar  =       1,  bar_intervall =     1000
     mbar_states =      12

Ewald parameters:
     verbose =       0, ew_type =       0, nbflag  =       1, use_pme =       1
     vdwmeth =       1, eedmeth =       1, netfrc  =       1
     Box X =   87.894   Box Y =   67.207   Box Z =   78.608
     Alpha =   90.000   Beta  =   90.000   Gamma =   90.000
     NFFT1 =   96       NFFT2 =   64       NFFT3 =   80
     Cutoff=    8.000   Tol   =0.100E-04
     Ewald Coefficient =  0.34864
     Interpolation order =    4
     TI Mask 1 :1; matches     43 atoms
     TI Mask 2 :2; matches     43 atoms
     TI region 1:   46551 atoms
     TI region 2:   46551 atoms
     SC Mask 1 :1@H34; matches      1 atoms
     SC Mask 2 :2@Cl18; matches      1 atoms
Removing charge of       0.1510 from atom      43
Removing charge of      -0.0609 from atom      86
Total charge of   0.09010100 removed from       2 atoms

    MBAR - lambda values considered:
      12 total:  0.0000 0.0479 0.1150 0.2063 0.3160 0.4373 0.5626 0.6839 0.7936 0.8849 0.9520 1.0000
    Extra energies will be computed    500 times.
 Noshake mask :1,2; matches      86 atoms.

--------------------------------------------------------------------------------
   3.  ATOMIC COORDINATES AND VELOCITIES
--------------------------------------------------------------------------------

L0
 begin time read from input coords =    20.000 ps

     Molecule     1 is partially softcore
     Molecule     2 is partially softcore
 Number of triangulated 3-point waters found:    13488
   Removing shake constraints from C22   L0    1 -- H41   L0    1
   Removing shake constraints from C22   L0    1 -- H42   L0    1
   Removing shake constraints from C21   L0    1 -- H39   L0    1
   Removing shake constraints from C21   L0    1 -- H40   L0    1
   Removing shake constraints from C20   L0    1 -- H38   L0    1
   Removing shake constraints from C19   L0    1 -- H37   L0    1
   Removing shake constraints from C18   L0    1 -- H36   L0    1
   Removing shake constraints from C15   L0    1 -- H35   L0    1
   Removing shake constraints from C14   L0    1 -- H34   L0    1
   Removing shake constraints from C13   L0    1 -- H33   L0    1
   Removing shake constraints from C10   L0    1 -- H32   L0    1
   Removing shake constraints from C9    L0    1 -- H31   L0    1
   Removing shake constraints from C8    L0    1 -- H30   L0    1
   Removing shake constraints from N5    L0    1 -- H29   L0    1
   Removing shake constraints from N4    L0    1 -- H43   L0    1
   Removing shake constraints from N4    L0    1 -- H28   L0    1
   Removing shake constraints from C1    L0    1 -- H25   L0    1
   Removing shake constraints from C1    L0    1 -- H26   L0    1
   Removing shake constraints from C1    L0    1 -- H27   L0    1
   Removing shake constraints from C23   L1    2 -- H41   L1    2
   Removing shake constraints from C23   L1    2 -- H42   L1    2
   Removing shake constraints from C22   L1    2 -- H39   L1    2
   Removing shake constraints from C22   L1    2 -- H40   L1    2
   Removing shake constraints from C21   L1    2 -- H38   L1    2
   Removing shake constraints from C20   L1    2 -- H37   L1    2
   Removing shake constraints from C13   L1    2 -- H34   L1    2
   Removing shake constraints from C16   L1    2 -- H35   L1    2
   Removing shake constraints from C19   L1    2 -- H36   L1    2
   Removing shake constraints from C10   L1    2 -- H33   L1    2
   Removing shake constraints from C9    L1    2 -- H32   L1    2
   Removing shake constraints from C8    L1    2 -- H31   L1    2
   Removing shake constraints from N5    L1    2 -- H30   L1    2
   Removing shake constraints from N4    L1    2 -- H43   L1    2
   Removing shake constraints from N4    L1    2 -- H29   L1    2
   Removing shake constraints from C1    L1    2 -- H26   L1    2
   Removing shake constraints from C1    L1    2 -- H27   L1    2
   Removing shake constraints from C1    L1    2 -- H28   L1    2
 WARNING: SHAKEn bond for atoms       14       43 is partially softcore.
 Coordinates for common atoms will be synchronized from V0.
 Consider using noshake mask or disabling SHAKE.

 Number of shake restraints removed in TI region  1 :       19
 Number of shake restraints removed in TI region  2 :       18

     Sum of charges for TI region  1 =  -0.15102723
     Assuming uniform neutralizing plasma

     Sum of charges for TI region  2 =   0.06096676
     Assuming uniform neutralizing plasma

--------------------------------------------------------------------------------
   4.  RESULTS
 NSTEP =     1000   TIME(PS) =      22.000  TEMP(K) =   283.53  PRESS =     0.0
 Etot   =   -117141.1486  EKtot   =     27100.1074  EPtot      =   -144241.2560
 BOND   =      1155.8776  ANGLE   =      3025.4228  DIHED      =      4799.7889
 1-4 NB =      1408.6628  1-4 EEL =     16020.8714  VDWAALS    =     17668.1115
 EELEC  =   -188319.9910  EHBOND  =         0.0000  RESTRAINT  =         0.0000
 EKCMT  =         0.0000  VIRIAL  =         0.0000  VOLUME     =    464342.7282
                                                    Density    =         1.0261
 DV/DL  =         4.8982
 ------------------------------------------------------------------------------

      A V E R A G E S   O V E R   50000 S T E P S

 NSTEP =    50000   TIME(PS) =     120.000  TEMP(K) =   296.78  PRESS =     0.0
 Etot   =   -111602.8476  EKtot   =     28366.3023  EPtot      =   -139969.1499
 BOND   =      1187.1972  ANGLE   =      3063.2435  DIHED      =      4888.5342
 1-4 NB =      1412.1560  1-4 EEL =     15987.3523  VDWAALS    =     15729.3056
 EELEC  =   -182236.9387  EHBOND  =         0.0000  RESTRAINT  =         0.0000
 EKCMT  =         0.0000  VIRIAL  =         0.0000  VOLUME     =    462877.6330
                                                    Density    =         1.0293
 DV/DL  =        -0.9077
 ------------------------------------------------------------------------------

      R M S  F L U C T U A T I O N S

 NSTEP =    50000   TIME(PS) =     120.000  TEMP(K) =    10.32  PRESS =     0.0
 Etot   =      3093.1781  EKtot   =       986.3339  EPtot      =      2127.2122
 BOND   =        48.4346  ANGLE   =        98.0829  DIHED      =        34.2046
 1-4 NB =        16.4175  1-4 EEL =        43.1115  VDWAALS    =       908.3155
 EELEC  =      2873.0566  EHBOND  =         0.0000  RESTRAINT  =         0.0000
 EKCMT  =         0.0000  VIRIAL  =         0.0000  VOLUME     =       742.3774
                                                    Density    =         0.0017
 DV/DL  =         3.0437
 ------------------------------------------------------------------------------

      A V E R A G E S   O V E R   50000 S T E P S

 NSTEP =    50000   TIME(PS) =     120.000  TEMP(K) =   296.78  PRESS =     0.0
 Etot   =   -111602.8136  EKtot   =     28366.3363  EPtot      =   -139969.1499
 BOND   =      1187.1972  ANGLE   =      3063.2435  DIHED      =      4888.5342
 1-4 NB =      1412.1560  1-4 EEL =     15987.3523  VDWAALS    =     15729.3056
 EELEC  =   -182236.9387  EHBOND  =         0.0000  RESTRAINT  =         0.0000
 EKCMT  =         0.0000  VIRIAL  =         0.0000  VOLUME     =    462877.6330
                                                    Density    =         1.0294
 DV/DL  =        -0.9077
 ------------------------------------------------------------------------------

      R M S  F L U C T U A T I O N S

 NSTEP =    50000   TIME(PS) =     120.000  TEMP(K) =    10.32  PRESS =     0.0
 Etot   =      3093.1681  EKtot   =       986.3237  EPtot      =      2127.2122
 BOND   =        48.4346  ANGLE   =        98.0829  DIHED      =        34.2046
 1-4 NB =        16.4175  1-4 EEL =        43.1115  VDWAALS    =       908.3155
 EELEC  =      2873.0566  EHBOND  =         0.0000  RESTRAINT  =         0.0000
 EKCMT  =         0.0000  VIRIAL  =         0.0000  VOLUME     =       742.3774
                                                    Density    =         0.0017
 DV/DL  =         3.0437
 ------------------------------------------------------------------------------

      DV/DL, AVERAGES OVER   50000 STEPS

 NSTEP =    50000   TIME(PS) =     120.000  TEMP(K) =    10.32  PRESS =     0.0
 Etot   =         0.0000  EKtot   =         0.0000  EPtot      =        -0.8987
 BOND   =         0.0000  ANGLE   =         0.0000  DIHED      =         0.0000
 1-4 NB =         0.0000  1-4 EEL =         0.0000  VDWAALS    =        -0.2835
 EELEC  =        -0.1933  EHBOND  =         0.0000  RESTRAINT  =         0.0000
 EKCMT  =         0.0000  VIRIAL  =         0.0000  VOLUME     =         0.0000
                                                    Density    =         0.0000
 DV/DL  =        -0.8987
 ------------------------------------------------------------------------------

      A V E R A G E S   O V E R   50000 S T E P S

 NSTEP =   100000   TIME(PS) =     220.000  TEMP(K) =   298.12  PRESS =     0.0
 Etot   =   -111160.5149  EKtot   =     28494.1702  EPtot      =   -139654.6851
 BOND   =      1190.2754  ANGLE   =      3073.9904  DIHED      =      4892.2586
 1-4 NB =      1412.6494  1-4 EEL =     15999.1441  VDWAALS    =     15589.7527
 EELEC  =   -181812.7557  EHBOND  =         0.0000  RESTRAINT  =         0.0000
 EKCMT  =         0.0000  VIRIAL  =         0.0000  VOLUME     =    462882.8215
                                                    Density    =         1.0293
 DV/DL  =        -0.3790
 ------------------------------------------------------------------------------

      R M S  F L U C T U A T I O N S

 NSTEP =   100000   TIME(PS) =     220.000  TEMP(K) =     1.35  PRESS =     0.0
 Etot   =       226.2205  EKtot   =       129.4678  EPtot      =       184.3092
 BOND   =        29.5509  ANGLE   =        42.1306  DIHED      =        25.3049
 1-4 NB =        15.4461  1-4 EEL =        42.3641  VDWAALS    =       180.9064
 EELEC  =       290.0167  EHBOND  =         0.0000  RESTRAINT  =         0.0000
 EKCMT  =         0.0000  VIRIAL  =         0.0000  VOLUME     =       949.3953
                                                    Density    =         0.0021
 DV/DL  =         3.2424
 ------------------------------------------------------------------------------

      A V E R A G E S   O V E R   50000 S T E P S

 NSTEP =   100000   TIME(PS) =     220.000  TEMP(K) =   298.12  PRESS =     0.0
 Etot   =   -111160.5531  EKtot   =     28494.1320  EPtot      =   -139654.6851
 BOND   =      1190.2754  ANGLE   =      3073.9904  DIHED      =      4892.2586
 1-4 NB =      1412.6494  1-4 EEL =     15999.1441  VDWAALS    =     15589.7527
 EELEC  =   -181812.7557  EHBOND  =         0.0000  RESTRAINT  =         0.0000
 EKCMT  =         0.0000  VIRIAL  =         0.0000  VOLUME     =    462882.8215
                                                    Density    =         1.0294
 DV/DL  =        -0.3790
 ------------------------------------------------------------------------------

      R M S  F L U C T U A T I O N S

 NSTEP =   100000   TIME(PS) =     220.000  TEMP(K) =     1.35  PRESS =     0.0
 Etot   =       226.1792  EKtot   =       129.4474  EPtot      =       184.3092
 BOND   =        29.5509  ANGLE   =        42.1306  DIHED      =        25.3049
 1-4 NB =        15.4461  1-4 EEL =        42.3641  VDWAALS    =       180.9064
 EELEC  =       290.0167  EHBOND  =         0.0000  RESTRAINT  =         0.0000
 EKCMT  =         0.0000  VIRIAL  =         0.0000  VOLUME     =       949.3953
                                                    Density    =         0.0021
 DV/DL  =         3.2424
 ------------------------------------------------------------------------------

      DV/DL, AVERAGES OVER   50000 STEPS

 NSTEP =   100000   TIME(PS) =     220.000  TEMP(K) =     1.35  PRESS =     0.0
 Etot   =         0.0000  EKtot   =         0.0000  EPtot      =        -0.3755
 BOND   =         0.0000  ANGLE   =         0.0000  DIHED      =         0.0000
 1-4 NB =         0.0000  1-4 EEL =         0.0000  VDWAALS    =        -0.2835
 EELEC  =        -0.1933  EHBOND  =         0.0000  RESTRAINT  =         0.0000
 EKCMT  =         0.0000  VIRIAL  =         0.0000  VOLUME     =         0.0000
                                                    Density    =         0.0000
 DV/DL  =        -0.3755
 ------------------------------------------------------------------------------

      A V E R A G E S   O V E R   50000 S T E P S

 NSTEP =   500000   TIME(PS) =    1020.000  TEMP(K) =   298.20  PRESS =     0.0
 Etot   =   -111149.4612  EKtot   =     28502.3387  EPtot      =   -139651.7999
 BOND   =      1187.0206  ANGLE   =      3064.9872  DIHED      =      4879.4496
 1-4 NB =      1411.8177  1-4 EEL =     15987.5010  VDWAALS    =     15611.5742
 EELEC  =   -181794.1502  EHBOND  =         0.0000  RESTRAINT  =         0.0000
 EKCMT  =         0.0000  VIRIAL  =         0.0000  VOLUME     =    462941.7941
                                                    Density    =         1.0292
 DV/DL  =        -0.9308
 ------------------------------------------------------------------------------

      R M S  F L U C T U A T I O N S

 NSTEP =   500000   TIME(PS) =    1020.000  TEMP(K) =     1.39  PRESS =     0.0
 Etot   =       218.9547  EKtot   =       133.2592  EPtot      =       173.3710
 BOND   =        28.8860  ANGLE   =        42.7540  DIHED      =        23.9535
 1-4 NB =        15.0690  1-4 EEL =        41.5257  VDWAALS    =       177.9101
 EELEC  =       271.7740  EHBOND  =         0.0000  RESTRAINT  =         0.0000
 EKCMT  =         0.0000  VIRIAL  =         0.0000  VOLUME     =       792.9615
                                                    Density    =         0.0018
 DV/DL  =         3.2658
 ------------------------------------------------------------------------------

      A V E R A G E S   O V E R   50000 S T E P S

 NSTEP =   500000   TIME(PS) =    1020.000  TEMP(K) =   298.20  PRESS =     0.0
 Etot   =   -111149.4355  EKtot   =     28502.3643  EPtot      =   -139651.7999
 BOND   =      1187.0206  ANGLE   =      3064.9872  DIHED      =      4879.4496
 1-4 NB =      1411.8177  1-4 EEL =     15987.5010  VDWAALS    =     15611.5742
 EELEC  =   -181794.1502  EHBOND  =         0.0000  RESTRAINT  =         0.0000
 EKCMT  =         0.0000  VIRIAL  =         0.0000  VOLUME     =    462941.7941
                                                    Density    =         1.0293
 DV/DL  =        -0.9308
 ------------------------------------------------------------------------------

      R M S  F L U C T U A T I O N S

 NSTEP =   500000   TIME(PS) =    1020.000  TEMP(K) =     1.39  PRESS =     0.0
 Etot   =       218.9998  EKtot   =       133.2879  EPtot      =       173.3710
 BOND   =        28.8860  ANGLE   =        42.7540  DIHED      =        23.9535
 1-4 NB =        15.0690  1-4 EEL =        41.5257  VDWAALS    =       177.9101
 EELEC  =       271.7740  EHBOND  =         0.0000  RESTRAINT  =         0.0000
 EKCMT  =         0.0000  VIRIAL  =         0.0000  VOLUME     =       792.9615
                                                    Density    =         0.0018
 DV/DL  =         3.2658
 ------------------------------------------------------------------------------

      DV/DL, AVERAGES OVER   50000 STEPS

 NSTEP =   500000   TIME(PS) =    1020.000  TEMP(K) =     1.39  PRESS =     0.0
 Etot   =         0.0000  EKtot   =         0.0000  EPtot      =        -0.9216
 BOND   =         0.0000  ANGLE   =         0.0000  DIHED      =         0.0000
 1-4 NB =         0.0000  1-4 EEL =         0.0000  VDWAALS    =        -0.2834
 EELEC  =        -0.1933  EHBOND  =         0.0000  RESTRAINT  =         0.0000
 EKCMT  =         0.0000  VIRIAL  =         0.0000  VOLUME     =         0.0000
                                                    Density    =         0.0000
 DV/DL  =        -0.9216
 ------------------------------------------------------------------------------

      A V E R A G E S   O V E R  500000 S T E P S

 NSTEP =   500000   TIME(PS) =    1020.000  TEMP(K) =   297.95  PRESS =     0.0
 Etot   =   -111226.1882  EKtot   =     28478.3958  EPtot      =   -139704.5839
 BOND   =      1188.4543  ANGLE   =      3064.3788  DIHED      =      4888.3063
 1-4 NB =      1412.0634  1-4 EEL =     15987.8002  VDWAALS    =     15616.6991
 EELEC  =   -181862.2860  EHBOND  =         0.0000  RESTRAINT  =         0.0000
 EKCMT  =         0.0000  VIRIAL  =         0.0000  VOLUME     =    462776.2013
                                                    Density    =         1.0295
 DV/DL  =        -1.0036
 ------------------------------------------------------------------------------

      R M S  F L U C T U A T I O N S

 NSTEP =   500000   TIME(PS) =    1020.000  TEMP(K) =     3.53  PRESS =     0.0
 Etot   =      1008.7446  EKtot   =       337.3262  EPtot      =       700.6727
 BOND   =        31.5095  ANGLE   =        50.8574  DIHED      =        25.5458
 1-4 NB =        15.4472  1-4 EEL =        43.1309  VDWAALS    =       337.4638
 EELEC  =       957.5020  EHBOND  =         0.0000  RESTRAINT  =         0.0000
 EKCMT  =         0.0000  VIRIAL  =         0.0000  VOLUME     =       914.6726
                                                    Density    =         0.0020
 DV/DL  =         2.9361
 ------------------------------------------------------------------------------

      A V E R A G E S   O V E R  500000 S T E P S

 NSTEP =   500000   TIME(PS) =    1020.000  TEMP(K) =   297.95  PRESS =     0.0
 Etot   =   -111226.1871  EKtot   =     28478.3969  EPtot      =   -139704.5839
 BOND   =      1188.4543  ANGLE   =      3064.3788  DIHED      =      4888.3063
 1-4 NB =      1412.0634  1-4 EEL =     15987.8002  VDWAALS    =     15616.6991
 EELEC  =   -181862.2860  EHBOND  =         0.0000  RESTRAINT  =         0.0000
 EKCMT  =         0.0000  VIRIAL  =         0.0000  VOLUME     =    462776.2013
                                                    Density    =         1.0297
 DV/DL  =        -1.0036
 ------------------------------------------------------------------------------

      R M S  F L U C T U A T I O N S

 NSTEP =   500000   TIME(PS) =    1020.000  TEMP(K) =     3.53  PRESS =     0.0
 Etot   =      1008.7410  EKtot   =       337.3230  EPtot      =       700.6727
 BOND   =        31.5095  ANGLE   =        50.8574  DIHED      =        25.5458
 1-4 NB =        15.4472  1-4 EEL =        43.1309  VDWAALS    =       337.4638
 EELEC  =       957.5020  EHBOND  =         0.0000  RESTRAINT  =         0.0000
 EKCMT  =         0.0000  VIRIAL  =         0.0000  VOLUME     =       914.6726
                                                    Density    =         0.0020
 DV/DL  =         2.9361
 ------------------------------------------------------------------------------

      DV/DL, AVERAGES OVER  500000 STEPS

 NSTEP =   500000   TIME(PS) =    1020.000  TEMP(K) =     3.53  PRESS =     0.0
 Etot   =         0.0000  EKtot   =         0.0000  EPtot      =        -0.9933
 BOND   =         0.0000  ANGLE   =         0.0000  DIHED      =         0.0000
 1-4 NB =         0.0000  1-4 EEL =         0.0000  VDWAALS    =        -0.2835
 EELEC  =        -0.1933  EHBOND  =         0.0000  RESTRAINT  =         0.0000
 EKCMT  =         0.0000  VIRIAL  =         0.0000  VOLUME     =         0.0000
                                                    Density    =         0.0000
 DV/DL  =        -0.9933
 ------------------------------------------------------------------------------
