-------------------------------------------------------
          Amber 16 PMEMD                              2016
          -------------------------------------------------------

  [-O]verwriting output

File Assignments:

 Here is the input file:

TI/FEP, NpT, decharge transformation
 &cntrl
 ! please adjust namelist parameters to your needs!

 ! parameters for general MD
 imin = 0, nstlim = 500000, irest = 1, ntx = 5, dt = 0.002,
 ntt = 3, temp0 = 298.0, gamma_ln = 2.0, ig = -1,
 ntb = 2,
 ntp = 1, barostat = 2, pres0 = 1.01325, taup = 2.0,
 ntwe = 100, ntwx = 10000, ntpr = 1000, ntwr = 50000, ntave = 50000,
 ioutfm = 1, iwrap = 1, ntxo = 2,

 ! parameters for alchemical free energy simulation
 ntc = 2, ntf = 1,
 noshakemask = ':1,2',

 icfe = 1, ifsc = 0, clambda = 0.00, scalpha = 0.5, scbeta = 12.0,
 ifmbar = 1, mbar_lambda = 0.00 0.25 0.50 0.75 1.00,
 mbar_states = 5, bar_intervall = 1000,   ! ntpr = bar_intervall for alchemical

 timask1=':1', timask2=':2',
scmask1='',
scmask2='',
 crgmask = ':2@H34',
 /
 &ewald
 /

Note: ig = -1. Setting random seed to   515746 based on wallclock time in
      microseconds.

--------------------------------------------------------------------------------
   1.  RESOURCE   USE:
--------------------------------------------------------------------------------

 getting box info from netcdf restart file
 NATOM  =    4115 NTYPES =      13 NBONH =    4067 MBONA  =      54
 NTHETH =      80 MTHETA =      82 NPHIH =     156 MPHIA  =     130
 NHPARM =       0 NPARM  =       0 NNB   =    5842 NRES   =    1345
 NBONA  =      54 NTHETA =      82 NPHIA =     130 NUMBND =      22
 NUMANG =      35 NPTRA  =      14 NATYP =      17 NPHB   =       1
 IFBOX  =       1 NMXRS  =      43 IFCAP =       0 NEXTRA =       0
 NCOPY  =       0

     BOX TYPE: RECTILINEAR

--------------------------------------------------------------------------------
   2.  CONTROL  DATA  FOR  THE  RUN
--------------------------------------------------------------------------------

L0

General flags:
     imin    =       0, nmropt  =       0

Nature and format of input:
     ntx     =       5, irest   =       1, ntrx    =       1

Nature and format of output:
     ntxo    =       2, ntpr    =    1000, ntrx    =       1, ntwr    =   50000
     iwrap   =       1, ntwx    =   10000, ntwv    =       0, ntwe    =     100
     ioutfm  =       1, ntwprt  =       0, idecomp =       0, rbornstat=      0

Potential function:
     ntf     =       1, ntb     =       2, igb     =       0, nsnb    =      25
     ipol    =       0, gbsa    =       0, iesp    =       0
     dielc   =   1.00000, cut     =   8.00000, intdiel =   1.00000

Frozen or restrained atoms:
     ibelly  =       0, ntr     =       0

Molecular dynamics:
     nstlim  =    500000, nscm    =      1000, nrespa  =         1
     t       =   0.00000, dt      =   0.00200, vlimit  =  -1.00000

Langevin dynamics temperature regulation:
     ig      =  515746
     temp0   = 298.00000, tempi   =   0.00000, gamma_ln=   2.00000

Pressure regulation:
     ntp     =       1
     pres0   =   1.01325, comp    =  44.60000, taup    =   2.00000
     Monte-Carlo Barostat:
     mcbarint  =     100

SHAKE:
     ntc     =       2, jfastw  =       0
     tol     =   0.00001

Free energy options:
     icfe    =       1, ifsc    =       0, klambda =       1
     clambda =  0.0000, scalpha =  0.5000, scbeta  = 12.0000
     sceeorder =       2
     dynlmb =  0.0000 logdvdl =       0

FEP MBAR options:
     ifmbar  =       1,  bar_intervall =     1000
     mbar_states =       5

Ewald parameters:
     verbose =       0, ew_type =       0, nbflag  =       1, use_pme =       1
     vdwmeth =       1, eedmeth =       1, netfrc  =       1
     Box X =   32.703   Box Y =   37.439   Box Z =   33.758
     Alpha =   90.000   Beta  =   90.000   Gamma =   90.000
     NFFT1 =   36       NFFT2 =   40       NFFT3 =   36
     Cutoff=    8.000   Tol   =0.100E-04
     Ewald Coefficient =  0.34864
     Interpolation order =    4
     TI Mask 1 :1; matches     43 atoms
     TI Mask 2 :2; matches     43 atoms
     TI region 1:    4072 atoms
     TI region 2:    4072 atoms
Removing charge of       0.1510 from atom      86
Total charge of   0.15104700 removed from       1 atoms

    MBAR - lambda values considered:
       5 total:  0.0000 0.2500 0.5000 0.7500 1.0000
    Extra energies will be computed    500 times.
     Checking for mismatched coordinates.
 Noshake mask :1,2; matches      86 atoms.

--------------------------------------------------------------------------------
   3.  ATOMIC COORDINATES AND VELOCITIES
--------------------------------------------------------------------------------

L0
 begin time read from input coords =    20.000 ps

 Number of triangulated 3-point waters found:     1343
   Removing shake constraints from C22   L0    1 -- H41   L0    1
   Removing shake constraints from C22   L0    1 -- H42   L0    1
   Removing shake constraints from C21   L0    1 -- H39   L0    1
   Removing shake constraints from C21   L0    1 -- H40   L0    1
   Removing shake constraints from C20   L0    1 -- H38   L0    1
   Removing shake constraints from C19   L0    1 -- H37   L0    1
   Removing shake constraints from C18   L0    1 -- H36   L0    1
   Removing shake constraints from C15   L0    1 -- H35   L0    1
   Removing shake constraints from C14   L0    1 -- H34   L0    1
   Removing shake constraints from C13   L0    1 -- H33   L0    1
   Removing shake constraints from C10   L0    1 -- H32   L0    1
   Removing shake constraints from C9    L0    1 -- H31   L0    1
   Removing shake constraints from C8    L0    1 -- H30   L0    1
   Removing shake constraints from N5    L0    1 -- H29   L0    1
   Removing shake constraints from N4    L0    1 -- H43   L0    1
   Removing shake constraints from N4    L0    1 -- H28   L0    1
   Removing shake constraints from C1    L0    1 -- H25   L0    1
   Removing shake constraints from C1    L0    1 -- H26   L0    1
   Removing shake constraints from C1    L0    1 -- H27   L0    1
   Removing shake constraints from C22   L0    2 -- H41   L0    2
   Removing shake constraints from C22   L0    2 -- H42   L0    2
   Removing shake constraints from C21   L0    2 -- H39   L0    2
   Removing shake constraints from C21   L0    2 -- H40   L0    2
   Removing shake constraints from C20   L0    2 -- H38   L0    2
   Removing shake constraints from C19   L0    2 -- H37   L0    2
   Removing shake constraints from C18   L0    2 -- H36   L0    2
   Removing shake constraints from C15   L0    2 -- H35   L0    2
   Removing shake constraints from C14   L0    2 -- H34   L0    2
   Removing shake constraints from C13   L0    2 -- H33   L0    2
   Removing shake constraints from C10   L0    2 -- H32   L0    2
   Removing shake constraints from C9    L0    2 -- H31   L0    2
   Removing shake constraints from C8    L0    2 -- H30   L0    2
   Removing shake constraints from N5    L0    2 -- H29   L0    2
   Removing shake constraints from N4    L0    2 -- H43   L0    2
   Removing shake constraints from N4    L0    2 -- H28   L0    2
   Removing shake constraints from C1    L0    2 -- H25   L0    2
   Removing shake constraints from C1    L0    2 -- H26   L0    2
   Removing shake constraints from C1    L0    2 -- H27   L0    2
 Number of shake restraints removed:       38

     Sum of charges for TI region  1 =   1.00002000
     Assuming uniform neutralizing plasma

     Sum of charges for TI region  2 =   0.84897300
     Assuming uniform neutralizing plasma

--------------------------------------------------------------------------------
   4.  RESULTS
 NSTEP =     1000   TIME(PS) =      22.000  TEMP(K) =   284.77  PRESS =     0.0
 Etot   =    -10883.0161  EKtot   =      2321.8279  EPtot      =    -13204.8440
 BOND   =        19.2698  ANGLE   =        30.5452  DIHED      =        16.3474
 1-4 NB =         7.6766  1-4 EEL =       -62.1542  VDWAALS    =      2126.9655
 EELEC  =    -15343.4942  EHBOND  =         0.0000  RESTRAINT  =         0.0000
 EKCMT  =         0.0000  VIRIAL  =         0.0000  VOLUME     =     42279.5368
                                                    Density    =         0.9637
 DV/DL  =        -5.0034
 ------------------------------------------------------------------------------

      A V E R A G E S   O V E R   50000 S T E P S

 NSTEP =    50000   TIME(PS) =     120.000  TEMP(K) =   295.62  PRESS =     0.0
 Etot   =    -10452.0994  EKtot   =      2410.3014  EPtot      =    -12862.4008
 BOND   =        18.5530  ANGLE   =        32.4716  DIHED      =        19.0215
 1-4 NB =         7.9038  1-4 EEL =       -62.1178  VDWAALS    =      1909.2910
 EELEC  =    -14787.5239  EHBOND  =         0.0000  RESTRAINT  =         0.0000
 EKCMT  =         0.0000  VIRIAL  =         0.0000  VOLUME     =     41324.8146
                                                    Density    =         0.9860
 DV/DL  =        -3.8351
 ------------------------------------------------------------------------------

      R M S  F L U C T U A T I O N S

 NSTEP =    50000   TIME(PS) =     120.000  TEMP(K) =    10.55  PRESS =     0.0
 Etot   =       275.5578  EKtot   =        86.0016  EPtot      =       198.3854
 BOND   =         3.8862  ANGLE   =         3.3457  DIHED      =         2.7494
 1-4 NB =         0.8544  1-4 EEL =         1.9095  VDWAALS    =       100.7948
 EELEC  =       285.9953  EHBOND  =         0.0000  RESTRAINT  =         0.0000
 EKCMT  =         0.0000  VIRIAL  =         0.0000  VOLUME     =       321.3793
                                                    Density    =         0.0077
 DV/DL  =         1.3275
 ------------------------------------------------------------------------------

      A V E R A G E S   O V E R   50000 S T E P S

 NSTEP =    50000   TIME(PS) =     120.000  TEMP(K) =   295.62  PRESS =     0.0
 Etot   =    -10452.0994  EKtot   =      2410.3014  EPtot      =    -12862.4008
 BOND   =        18.5530  ANGLE   =        32.4716  DIHED      =        19.0215
 1-4 NB =         7.9038  1-4 EEL =       -62.1178  VDWAALS    =      1909.2910
 EELEC  =    -14787.5239  EHBOND  =         0.0000  RESTRAINT  =         0.0000
 EKCMT  =         0.0000  VIRIAL  =         0.0000  VOLUME     =     41324.8146
                                                    Density    =         0.9860
 DV/DL  =        -3.8351
 ------------------------------------------------------------------------------

      R M S  F L U C T U A T I O N S

 NSTEP =    50000   TIME(PS) =     120.000  TEMP(K) =    10.55  PRESS =     0.0
 Etot   =       275.5578  EKtot   =        86.0016  EPtot      =       198.3854
 BOND   =         3.8862  ANGLE   =         3.3457  DIHED      =         2.7494
 1-4 NB =         0.8544  1-4 EEL =         1.9095  VDWAALS    =       100.7948
 EELEC  =       285.9953  EHBOND  =         0.0000  RESTRAINT  =         0.0000
 EKCMT  =         0.0000  VIRIAL  =         0.0000  VOLUME     =       321.3793
                                                    Density    =         0.0077
 DV/DL  =         1.3275
 ------------------------------------------------------------------------------

      DV/DL, AVERAGES OVER   50000 STEPS

 NSTEP =    50000   TIME(PS) =     120.000  TEMP(K) =    10.55  PRESS =     0.0
 Etot   =         0.0000  EKtot   =         0.0000  EPtot      =        -3.7960
 BOND   =         0.0000  ANGLE   =         0.0000  DIHED      =         0.0000
 1-4 NB =         0.0000  1-4 EEL =         0.0000  VDWAALS    =         0.0000
 EELEC  =         1.5192  EHBOND  =         0.0000  RESTRAINT  =         0.0000
 EKCMT  =         0.0000  VIRIAL  =         0.0000  VOLUME     =         0.0000
                                                    Density    =         0.0000
 DV/DL  =        -3.7960
 ------------------------------------------------------------------------------

      A V E R A G E S   O V E R   50000 S T E P S

 NSTEP =   100000   TIME(PS) =     220.000  TEMP(K) =   297.10  PRESS =     0.0
 Etot   =    -10416.1453  EKtot   =      2422.3893  EPtot      =    -12838.5346
 BOND   =        18.5736  ANGLE   =        32.2598  DIHED      =        18.8487
 1-4 NB =         7.9784  1-4 EEL =       -61.7932  VDWAALS    =      1899.4835
 EELEC  =    -14753.8854  EHBOND  =         0.0000  RESTRAINT  =         0.0000
 EKCMT  =         0.0000  VIRIAL  =         0.0000  VOLUME     =     41306.1218
                                                    Density    =         0.9864
 DV/DL  =        -3.9124
 ------------------------------------------------------------------------------

      R M S  F L U C T U A T I O N S

 NSTEP =   100000   TIME(PS) =     220.000  TEMP(K) =     4.54  PRESS =     0.0
 Etot   =        61.9279  EKtot   =        37.0305  EPtot      =        52.2469
 BOND   =         3.9315  ANGLE   =         3.1460  DIHED      =         2.8158
 1-4 NB =         0.8989  1-4 EEL =         1.9938  VDWAALS    =        56.0726
 EELEC  =        86.6182  EHBOND  =         0.0000  RESTRAINT  =         0.0000
 EKCMT  =         0.0000  VIRIAL  =         0.0000  VOLUME     =       295.7011
                                                    Density    =         0.0070
 DV/DL  =         1.3166
 ------------------------------------------------------------------------------

      A V E R A G E S   O V E R   50000 S T E P S

 NSTEP =   100000   TIME(PS) =     220.000  TEMP(K) =   297.10  PRESS =     0.0
 Etot   =    -10416.1453  EKtot   =      2422.3893  EPtot      =    -12838.5346
 BOND   =        18.5736  ANGLE   =        32.2598  DIHED      =        18.8487
 1-4 NB =         7.9784  1-4 EEL =       -61.7932  VDWAALS    =      1899.4835
 EELEC  =    -14753.8854  EHBOND  =         0.0000  RESTRAINT  =         0.0000
 EKCMT  =         0.0000  VIRIAL  =         0.0000  VOLUME     =     41306.1218
                                                    Density    =         0.9864
 DV/DL  =        -3.9124
 ------------------------------------------------------------------------------

      R M S  F L U C T U A T I O N S

 NSTEP =   100000   TIME(PS) =     220.000  TEMP(K) =     4.54  PRESS =     0.0
 Etot   =        61.9279  EKtot   =        37.0305  EPtot      =        52.2469
 BOND   =         3.9315  ANGLE   =         3.1460  DIHED      =         2.8158
 1-4 NB =         0.8989  1-4 EEL =         1.9938  VDWAALS    =        56.0726
 EELEC  =        86.6182  EHBOND  =         0.0000  RESTRAINT  =         0.0000
 EKCMT  =         0.0000  VIRIAL  =         0.0000  VOLUME     =       295.7011
                                                    Density    =         0.0070
 DV/DL  =         1.3166
 ------------------------------------------------------------------------------

      DV/DL, AVERAGES OVER   50000 STEPS

 NSTEP =   100000   TIME(PS) =     220.000  TEMP(K) =     4.54  PRESS =     0.0
 Etot   =         0.0000  EKtot   =         0.0000  EPtot      =        -3.8733
 BOND   =         0.0000  ANGLE   =         0.0000  DIHED      =         0.0000
 1-4 NB =         0.0000  1-4 EEL =         0.0000  VDWAALS    =         0.0000
 EELEC  =         1.5192  EHBOND  =         0.0000  RESTRAINT  =         0.0000
 EKCMT  =         0.0000  VIRIAL  =         0.0000  VOLUME     =         0.0000
                                                    Density    =         0.0000
 DV/DL  =        -3.8733
 ------------------------------------------------------------------------------

      A V E R A G E S   O V E R   50000 S T E P S

 NSTEP =   500000   TIME(PS) =    1020.000  TEMP(K) =   297.52  PRESS =     0.0
 Etot   =    -10403.4050  EKtot   =      2425.8539  EPtot      =    -12829.2589
 BOND   =        18.5393  ANGLE   =        32.7776  DIHED      =        18.7839
 1-4 NB =         7.8333  1-4 EEL =       -64.5642  VDWAALS    =      1898.9089
 EELEC  =    -14741.5378  EHBOND  =         0.0000  RESTRAINT  =         0.0000
 EKCMT  =         0.0000  VIRIAL  =         0.0000  VOLUME     =     41273.7548
                                                    Density    =         0.9872
 DV/DL  =        -3.8811
 ------------------------------------------------------------------------------

      R M S  F L U C T U A T I O N S

 NSTEP =   500000   TIME(PS) =    1020.000  TEMP(K) =     4.62  PRESS =     0.0
 Etot   =        59.4925  EKtot   =        37.6701  EPtot      =        50.2801
 BOND   =         3.8852  ANGLE   =         3.3108  DIHED      =         2.6353
 1-4 NB =         0.8726  1-4 EEL =         2.4868  VDWAALS    =        55.6373
 EELEC  =        83.5696  EHBOND  =         0.0000  RESTRAINT  =         0.0000
 EKCMT  =         0.0000  VIRIAL  =         0.0000  VOLUME     =       333.2126
                                                    Density    =         0.0079
 DV/DL  =         1.3507
 ------------------------------------------------------------------------------

      A V E R A G E S   O V E R   50000 S T E P S

 NSTEP =   500000   TIME(PS) =    1020.000  TEMP(K) =   297.52  PRESS =     0.0
 Etot   =    -10403.4050  EKtot   =      2425.8539  EPtot      =    -12829.2589
 BOND   =        18.5393  ANGLE   =        32.7776  DIHED      =        18.7839
 1-4 NB =         7.8333  1-4 EEL =       -64.5642  VDWAALS    =      1898.9089
 EELEC  =    -14741.5378  EHBOND  =         0.0000  RESTRAINT  =         0.0000
 EKCMT  =         0.0000  VIRIAL  =         0.0000  VOLUME     =     41273.7548
                                                    Density    =         0.9872
 DV/DL  =        -3.8811
 ------------------------------------------------------------------------------

      R M S  F L U C T U A T I O N S

 NSTEP =   500000   TIME(PS) =    1020.000  TEMP(K) =     4.62  PRESS =     0.0
 Etot   =        59.4925  EKtot   =        37.6701  EPtot      =        50.2801
 BOND   =         3.8852  ANGLE   =         3.3108  DIHED      =         2.6353
 1-4 NB =         0.8726  1-4 EEL =         2.4868  VDWAALS    =        55.6373
 EELEC  =        83.5696  EHBOND  =         0.0000  RESTRAINT  =         0.0000
 EKCMT  =         0.0000  VIRIAL  =         0.0000  VOLUME     =       333.2126
                                                    Density    =         0.0079
 DV/DL  =         1.3507
 ------------------------------------------------------------------------------

      DV/DL, AVERAGES OVER   50000 STEPS

 NSTEP =   500000   TIME(PS) =    1020.000  TEMP(K) =     4.62  PRESS =     0.0
 Etot   =         0.0000  EKtot   =         0.0000  EPtot      =        -3.8422
 BOND   =         0.0000  ANGLE   =         0.0000  DIHED      =         0.0000
 1-4 NB =         0.0000  1-4 EEL =         0.0000  VDWAALS    =         0.0000
 EELEC  =         1.5192  EHBOND  =         0.0000  RESTRAINT  =         0.0000
 EKCMT  =         0.0000  VIRIAL  =         0.0000  VOLUME     =         0.0000
                                                    Density    =         0.0000
 DV/DL  =        -3.8422
 ------------------------------------------------------------------------------

      A V E R A G E S   O V E R  500000 S T E P S

 NSTEP =   500000   TIME(PS) =    1020.000  TEMP(K) =   297.30  PRESS =     0.0
 Etot   =    -10414.3148  EKtot   =      2424.0353  EPtot      =    -12838.3501
 BOND   =        18.4943  ANGLE   =        32.5863  DIHED      =        19.0021
 1-4 NB =         7.8733  1-4 EEL =       -63.9325  VDWAALS    =      1900.4602
 EELEC  =    -14752.8338  EHBOND  =         0.0000  RESTRAINT  =         0.0000
 EKCMT  =         0.0000  VIRIAL  =         0.0000  VOLUME     =     41253.0600
                                                    Density    =         0.9877
 DV/DL  =        -3.8889
 ------------------------------------------------------------------------------

      R M S  F L U C T U A T I O N S

 NSTEP =   500000   TIME(PS) =    1020.000  TEMP(K) =     5.57  PRESS =     0.0
 Etot   =       109.2238  EKtot   =        45.4099  EPtot      =        82.7802
 BOND   =         3.9023  ANGLE   =         3.2658  DIHED      =         2.7676
 1-4 NB =         0.8687  1-4 EEL =         2.6745  VDWAALS    =        62.8249
 EELEC  =       125.5320  EHBOND  =         0.0000  RESTRAINT  =         0.0000
 EKCMT  =         0.0000  VIRIAL  =         0.0000  VOLUME     =       335.3546
                                                    Density    =         0.0080
 DV/DL  =         1.3390
 ------------------------------------------------------------------------------

      A V E R A G E S   O V E R  500000 S T E P S

 NSTEP =   500000   TIME(PS) =    1020.000  TEMP(K) =   297.30  PRESS =     0.0
 Etot   =    -10414.3148  EKtot   =      2424.0353  EPtot      =    -12838.3501
 BOND   =        18.4943  ANGLE   =        32.5863  DIHED      =        19.0021
 1-4 NB =         7.8733  1-4 EEL =       -63.9325  VDWAALS    =      1900.4602
 EELEC  =    -14752.8338  EHBOND  =         0.0000  RESTRAINT  =         0.0000
 EKCMT  =         0.0000  VIRIAL  =         0.0000  VOLUME     =     41253.0600
                                                    Density    =         0.9877
 DV/DL  =        -3.8889
 ------------------------------------------------------------------------------

      R M S  F L U C T U A T I O N S

 NSTEP =   500000   TIME(PS) =    1020.000  TEMP(K) =     5.57  PRESS =     0.0
 Etot   =       109.2238  EKtot   =        45.4099  EPtot      =        82.7802
 BOND   =         3.9023  ANGLE   =         3.2658  DIHED      =         2.7676
 1-4 NB =         0.8687  1-4 EEL =         2.6745  VDWAALS    =        62.8249
 EELEC  =       125.5320  EHBOND  =         0.0000  RESTRAINT  =         0.0000
 EKCMT  =         0.0000  VIRIAL  =         0.0000  VOLUME     =       335.3546
                                                    Density    =         0.0080
 DV/DL  =         1.3390
 ------------------------------------------------------------------------------

      DV/DL, AVERAGES OVER  500000 STEPS

 NSTEP =   500000   TIME(PS) =    1020.000  TEMP(K) =     5.57  PRESS =     0.0
 Etot   =         0.0000  EKtot   =         0.0000  EPtot      =        -3.8501
 BOND   =         0.0000  ANGLE   =         0.0000  DIHED      =         0.0000
 1-4 NB =         0.0000  1-4 EEL =         0.0000  VDWAALS    =         0.0000
 EELEC  =         1.5192  EHBOND  =         0.0000  RESTRAINT  =         0.0000
 EKCMT  =         0.0000  VIRIAL  =         0.0000  VOLUME     =         0.0000
                                                    Density    =         0.0000
 DV/DL  =        -3.8501
 ------------------------------------------------------------------------------
