-------------------------------------------------------
          Amber 16 PMEMD                              2016
          -------------------------------------------------------

  [-O]verwriting output

File Assignments:

 Here is the input file:

TI/FEP, NpT, vdW+bonded transformation
 &cntrl
 ! please adjust namelist parameters to your needs!

 ! parameters for general MD
 imin = 0, nstlim = 500000, irest = 1, ntx = 5, dt = 0.002,
 ntt = 3, temp0 = 298.0, gamma_ln = 2.0, ig = -1,
 ntb = 2,
 ntp = 1, barostat = 2, pres0 = 1.01325, taup = 2.0,
 ntwe = 100, ntwx = 10000, ntpr = 1000, ntwr = 50000, ntave = 50000,
 ioutfm = 1, iwrap = 1, ntxo = 2,

 ! parameters for alchemical free energy simulation
 ntc = 2, ntf = 1,
 noshakemask = ':1,2',

 icfe = 1, ifsc = 1, clambda = 0.4373, scalpha = 0.5, scbeta = 12.0,
 ifmbar = 1, mbar_lambda = 0.0 0.0479 0.1150 0.2063 0.3160 0.4373 0.5626 0.6839
 mbar_states = 12, bar_intervall = 1000,   ! ntpr = bar_intervall for alchemica

 timask1=':1', timask2=':2',
scmask1=':1@H34',
scmask2=':2@Cl18',
 crgmask = ':1@H34 | :2@Cl18',
 /
 &ewald
 /

Note: ig = -1. Setting random seed to   759294 based on wallclock time in
      microseconds.

--------------------------------------------------------------------------------
   1.  RESOURCE   USE:
--------------------------------------------------------------------------------

 getting box info from netcdf restart file
 NATOM  =    4115 NTYPES =      13 NBONH =    4066 MBONA  =      55
 NTHETH =      78 MTHETA =      84 NPHIH =     153 MPHIA  =     133
 NHPARM =       0 NPARM  =       0 NNB   =    5842 NRES   =    1345
 NBONA  =      55 NTHETA =      84 NPHIA =     133 NUMBND =      22
 NUMANG =      35 NPTRA  =      14 NATYP =      17 NPHB   =       1
 IFBOX  =       1 NMXRS  =      43 IFCAP =       0 NEXTRA =       0
 NCOPY  =       0

     BOX TYPE: RECTILINEAR

--------------------------------------------------------------------------------
   2.  CONTROL  DATA  FOR  THE  RUN
--------------------------------------------------------------------------------

L0

General flags:
     imin    =       0, nmropt  =       0

Nature and format of input:
     ntx     =       5, irest   =       1, ntrx    =       1

Nature and format of output:
     ntxo    =       2, ntpr    =    1000, ntrx    =       1, ntwr    =   50000
     iwrap   =       1, ntwx    =   10000, ntwv    =       0, ntwe    =     100
     ioutfm  =       1, ntwprt  =       0, idecomp =       0, rbornstat=      0

Potential function:
     ntf     =       1, ntb     =       2, igb     =       0, nsnb    =      25
     ipol    =       0, gbsa    =       0, iesp    =       0
     dielc   =   1.00000, cut     =   8.00000, intdiel =   1.00000

Frozen or restrained atoms:
     ibelly  =       0, ntr     =       0

Molecular dynamics:
     nstlim  =    500000, nscm    =      1000, nrespa  =         1
     t       =   0.00000, dt      =   0.00200, vlimit  =  -1.00000

Langevin dynamics temperature regulation:
     ig      =  759294
     temp0   = 298.00000, tempi   =   0.00000, gamma_ln=   2.00000

Pressure regulation:
     ntp     =       1
     pres0   =   1.01325, comp    =  44.60000, taup    =   2.00000
     Monte-Carlo Barostat:
     mcbarint  =     100

SHAKE:
     ntc     =       2, jfastw  =       0
     tol     =   0.00001

Free energy options:
     icfe    =       1, ifsc    =       1, klambda =       1
     clambda =  0.4373, scalpha =  0.5000, scbeta  = 12.0000
     sceeorder =       2
     dynlmb =  0.0000 logdvdl =       0

FEP MBAR options:
     ifmbar  =       1,  bar_intervall =     1000
     mbar_states =      12

Ewald parameters:
     verbose =       0, ew_type =       0, nbflag  =       1, use_pme =       1
     vdwmeth =       1, eedmeth =       1, netfrc  =       1
     Box X =   32.703   Box Y =   37.439   Box Z =   33.758
     Alpha =   90.000   Beta  =   90.000   Gamma =   90.000
     NFFT1 =   36       NFFT2 =   40       NFFT3 =   36
     Cutoff=    8.000   Tol   =0.100E-04
     Ewald Coefficient =  0.34864
     Interpolation order =    4
     TI Mask 1 :1; matches     43 atoms
     TI Mask 2 :2; matches     43 atoms
     TI region 1:    4072 atoms
     TI region 2:    4072 atoms
     SC Mask 1 :1@H34; matches      1 atoms
     SC Mask 2 :2@Cl18; matches      1 atoms
Removing charge of       0.1510 from atom      43
Removing charge of      -0.0609 from atom      86
Total charge of   0.09010100 removed from       2 atoms

    MBAR - lambda values considered:
      12 total:  0.0000 0.0479 0.1150 0.2063 0.3160 0.4373 0.5626 0.6839 0.7936 0.8849 0.9520 1.0000
    Extra energies will be computed    500 times.
 Noshake mask :1,2; matches      86 atoms.

--------------------------------------------------------------------------------
   3.  ATOMIC COORDINATES AND VELOCITIES
--------------------------------------------------------------------------------

L0
 begin time read from input coords =    20.000 ps

     Molecule     1 is partially softcore
     Molecule     2 is partially softcore
 Number of triangulated 3-point waters found:     1343
   Removing shake constraints from C22   L0    1 -- H41   L0    1
   Removing shake constraints from C22   L0    1 -- H42   L0    1
   Removing shake constraints from C21   L0    1 -- H39   L0    1
   Removing shake constraints from C21   L0    1 -- H40   L0    1
   Removing shake constraints from C20   L0    1 -- H38   L0    1
   Removing shake constraints from C19   L0    1 -- H37   L0    1
   Removing shake constraints from C18   L0    1 -- H36   L0    1
   Removing shake constraints from C15   L0    1 -- H35   L0    1
   Removing shake constraints from C14   L0    1 -- H34   L0    1
   Removing shake constraints from C13   L0    1 -- H33   L0    1
   Removing shake constraints from C10   L0    1 -- H32   L0    1
   Removing shake constraints from C9    L0    1 -- H31   L0    1
   Removing shake constraints from C8    L0    1 -- H30   L0    1
   Removing shake constraints from N5    L0    1 -- H29   L0    1
   Removing shake constraints from N4    L0    1 -- H43   L0    1
   Removing shake constraints from N4    L0    1 -- H28   L0    1
   Removing shake constraints from C1    L0    1 -- H25   L0    1
   Removing shake constraints from C1    L0    1 -- H26   L0    1
   Removing shake constraints from C1    L0    1 -- H27   L0    1
   Removing shake constraints from C23   L1    2 -- H41   L1    2
   Removing shake constraints from C23   L1    2 -- H42   L1    2
   Removing shake constraints from C22   L1    2 -- H39   L1    2
   Removing shake constraints from C22   L1    2 -- H40   L1    2
   Removing shake constraints from C21   L1    2 -- H38   L1    2
   Removing shake constraints from C20   L1    2 -- H37   L1    2
   Removing shake constraints from C13   L1    2 -- H34   L1    2
   Removing shake constraints from C16   L1    2 -- H35   L1    2
   Removing shake constraints from C19   L1    2 -- H36   L1    2
   Removing shake constraints from C10   L1    2 -- H33   L1    2
   Removing shake constraints from C9    L1    2 -- H32   L1    2
   Removing shake constraints from C8    L1    2 -- H31   L1    2
   Removing shake constraints from N5    L1    2 -- H30   L1    2
   Removing shake constraints from N4    L1    2 -- H43   L1    2
   Removing shake constraints from N4    L1    2 -- H29   L1    2
   Removing shake constraints from C1    L1    2 -- H26   L1    2
   Removing shake constraints from C1    L1    2 -- H27   L1    2
   Removing shake constraints from C1    L1    2 -- H28   L1    2
 WARNING: SHAKEn bond for atoms       14       43 is partially softcore.
 Coordinates for common atoms will be synchronized from V0.
 Consider using noshake mask or disabling SHAKE.

 Number of shake restraints removed in TI region  1 :       19
 Number of shake restraints removed in TI region  2 :       18

     Sum of charges for TI region  1 =   0.84897300
     Assuming uniform neutralizing plasma

     Sum of charges for TI region  2 =   1.06096699
     Assuming uniform neutralizing plasma

--------------------------------------------------------------------------------
   4.  RESULTS
 NSTEP =     1000   TIME(PS) =      22.000  TEMP(K) =   277.74  PRESS =     0.0
 Etot   =    -11041.2588  EKtot   =      2254.3037  EPtot      =    -13295.5625
 BOND   =        25.7000  ANGLE   =        26.7220  DIHED      =        16.9162
 1-4 NB =         6.6027  1-4 EEL =       -69.3613  VDWAALS    =      2094.7612
 EELEC  =    -15396.9033  EHBOND  =         0.0000  RESTRAINT  =         0.0000
 EKCMT  =         0.0000  VIRIAL  =         0.0000  VOLUME     =     41933.4551
                                                    Density    =         0.9716
 DV/DL  =         3.0844
 ------------------------------------------------------------------------------

      A V E R A G E S   O V E R   50000 S T E P S

 NSTEP =    50000   TIME(PS) =     120.000  TEMP(K) =   297.82  PRESS =     0.0
 Etot   =    -10440.4103  EKtot   =      2417.2988  EPtot      =    -12857.7091
 BOND   =        17.8011  ANGLE   =        32.2690  DIHED      =        18.4937
 1-4 NB =         7.8194  1-4 EEL =       -70.1653  VDWAALS    =      1908.0821
 EELEC  =    -14772.0092  EHBOND  =         0.0000  RESTRAINT  =         0.0000
 EKCMT  =         0.0000  VIRIAL  =         0.0000  VOLUME     =     41305.9953
                                                    Density    =         0.9865
 DV/DL  =         3.2166
 ------------------------------------------------------------------------------

      R M S  F L U C T U A T I O N S

 NSTEP =    50000   TIME(PS) =     120.000  TEMP(K) =    10.74  PRESS =     0.0
 Etot   =       287.1711  EKtot   =        87.1731  EPtot      =       208.7513
 BOND   =         3.6730  ANGLE   =         3.2424  DIHED      =         2.7431
 1-4 NB =         0.8562  1-4 EEL =         2.5928  VDWAALS    =       102.7530
 EELEC  =       299.5302  EHBOND  =         0.0000  RESTRAINT  =         0.0000
 EKCMT  =         0.0000  VIRIAL  =         0.0000  VOLUME     =       328.0339
                                                    Density    =         0.0078
 DV/DL  =         3.6958
 ------------------------------------------------------------------------------

      A V E R A G E S   O V E R   50000 S T E P S

 NSTEP =    50000   TIME(PS) =     120.000  TEMP(K) =   297.82  PRESS =     0.0
 Etot   =    -10440.4256  EKtot   =      2417.2835  EPtot      =    -12857.7091
 BOND   =        17.8011  ANGLE   =        32.2690  DIHED      =        18.4937
 1-4 NB =         7.8194  1-4 EEL =       -70.1653  VDWAALS    =      1908.0821
 EELEC  =    -14772.0092  EHBOND  =         0.0000  RESTRAINT  =         0.0000
 EKCMT  =         0.0000  VIRIAL  =         0.0000  VOLUME     =     41305.9953
                                                    Density    =         0.9878
 DV/DL  =         3.2166
 ------------------------------------------------------------------------------

      R M S  F L U C T U A T I O N S

 NSTEP =    50000   TIME(PS) =     120.000  TEMP(K) =    10.74  PRESS =     0.0
 Etot   =       287.1532  EKtot   =        87.1570  EPtot      =       208.7513
 BOND   =         3.6730  ANGLE   =         3.2424  DIHED      =         2.7431
 1-4 NB =         0.8562  1-4 EEL =         2.5928  VDWAALS    =       102.7530
 EELEC  =       299.5302  EHBOND  =         0.0000  RESTRAINT  =         0.0000
 EKCMT  =         0.0000  VIRIAL  =         0.0000  VOLUME     =       328.0339
                                                    Density    =         0.0078
 DV/DL  =         3.6958
 ------------------------------------------------------------------------------

      DV/DL, AVERAGES OVER   50000 STEPS

 NSTEP =    50000   TIME(PS) =     120.000  TEMP(K) =    10.74  PRESS =     0.0
 Etot   =         0.0000  EKtot   =         0.0000  EPtot      =         3.1849
 BOND   =         0.0000  ANGLE   =         0.0000  DIHED      =         0.0000
 1-4 NB =         0.0000  1-4 EEL =         0.0000  VDWAALS    =        -0.2541
 EELEC  =        -0.2355  EHBOND  =         0.0000  RESTRAINT  =         0.0000
 EKCMT  =         0.0000  VIRIAL  =         0.0000  VOLUME     =         0.0000
                                                    Density    =         0.0000
 DV/DL  =         3.1849
 ------------------------------------------------------------------------------

      A V E R A G E S   O V E R   50000 S T E P S

 NSTEP =   100000   TIME(PS) =     220.000  TEMP(K) =   298.93  PRESS =     0.0
 Etot   =    -10410.2188  EKtot   =      2426.2910  EPtot      =    -12836.5098
 BOND   =        17.9370  ANGLE   =        32.3220  DIHED      =        18.3079
 1-4 NB =         7.8214  1-4 EEL =       -71.8612  VDWAALS    =      1896.9471
 EELEC  =    -14737.9840  EHBOND  =         0.0000  RESTRAINT  =         0.0000
 EKCMT  =         0.0000  VIRIAL  =         0.0000  VOLUME     =     41233.2403
                                                    Density    =         0.9882
 DV/DL  =         3.4077
 ------------------------------------------------------------------------------

      R M S  F L U C T U A T I O N S

 NSTEP =   100000   TIME(PS) =     220.000  TEMP(K) =     4.61  PRESS =     0.0
 Etot   =        69.7077  EKtot   =        37.4447  EPtot      =        58.8690
 BOND   =         3.9021  ANGLE   =         3.2152  DIHED      =         2.6570
 1-4 NB =         0.8539  1-4 EEL =         1.6210  VDWAALS    =        57.4299
 EELEC  =        95.2003  EHBOND  =         0.0000  RESTRAINT  =         0.0000
 EKCMT  =         0.0000  VIRIAL  =         0.0000  VOLUME     =       335.7605
                                                    Density    =         0.0081
 DV/DL  =         3.6761
 ------------------------------------------------------------------------------

      A V E R A G E S   O V E R   50000 S T E P S

 NSTEP =   100000   TIME(PS) =     220.000  TEMP(K) =   298.93  PRESS =     0.0
 Etot   =    -10410.1586  EKtot   =      2426.3511  EPtot      =    -12836.5098
 BOND   =        17.9370  ANGLE   =        32.3220  DIHED      =        18.3079
 1-4 NB =         7.8214  1-4 EEL =       -71.8612  VDWAALS    =      1896.9471
 EELEC  =    -14737.9840  EHBOND  =         0.0000  RESTRAINT  =         0.0000
 EKCMT  =         0.0000  VIRIAL  =         0.0000  VOLUME     =     41233.2403
                                                    Density    =         0.9896
 DV/DL  =         3.4077
 ------------------------------------------------------------------------------

      R M S  F L U C T U A T I O N S

 NSTEP =   100000   TIME(PS) =     220.000  TEMP(K) =     4.61  PRESS =     0.0
 Etot   =        69.7165  EKtot   =        37.4548  EPtot      =        58.8690
 BOND   =         3.9021  ANGLE   =         3.2152  DIHED      =         2.6570
 1-4 NB =         0.8539  1-4 EEL =         1.6210  VDWAALS    =        57.4299
 EELEC  =        95.2003  EHBOND  =         0.0000  RESTRAINT  =         0.0000
 EKCMT  =         0.0000  VIRIAL  =         0.0000  VOLUME     =       335.7605
                                                    Density    =         0.0081
 DV/DL  =         3.6761
 ------------------------------------------------------------------------------

      DV/DL, AVERAGES OVER   50000 STEPS

 NSTEP =   100000   TIME(PS) =     220.000  TEMP(K) =     4.61  PRESS =     0.0
 Etot   =         0.0000  EKtot   =         0.0000  EPtot      =         3.3748
 BOND   =         0.0000  ANGLE   =         0.0000  DIHED      =         0.0000
 1-4 NB =         0.0000  1-4 EEL =         0.0000  VDWAALS    =        -0.2545
 EELEC  =        -0.2356  EHBOND  =         0.0000  RESTRAINT  =         0.0000
 EKCMT  =         0.0000  VIRIAL  =         0.0000  VOLUME     =         0.0000
                                                    Density    =         0.0000
 DV/DL  =         3.3748
 ------------------------------------------------------------------------------

      A V E R A G E S   O V E R   50000 S T E P S

 NSTEP =   500000   TIME(PS) =    1020.000  TEMP(K) =   298.63  PRESS =     0.0
 Etot   =    -10413.2478  EKtot   =      2423.8575  EPtot      =    -12837.1053
 BOND   =        17.7877  ANGLE   =        32.2716  DIHED      =        18.7445
 1-4 NB =         8.0895  1-4 EEL =       -67.1745  VDWAALS    =      1892.1251
 EELEC  =    -14738.9493  EHBOND  =         0.0000  RESTRAINT  =         0.0000
 EKCMT  =         0.0000  VIRIAL  =         0.0000  VOLUME     =     41319.2733
                                                    Density    =         0.9862
 DV/DL  =         3.3536
 ------------------------------------------------------------------------------

      R M S  F L U C T U A T I O N S

 NSTEP =   500000   TIME(PS) =    1020.000  TEMP(K) =     4.70  PRESS =     0.0
 Etot   =        70.1217  EKtot   =        38.1135  EPtot      =        57.9503
 BOND   =         3.8017  ANGLE   =         3.2419  DIHED      =         2.5909
 1-4 NB =         0.9227  1-4 EEL =         2.0295  VDWAALS    =        55.7006
 EELEC  =        90.4778  EHBOND  =         0.0000  RESTRAINT  =         0.0000
 EKCMT  =         0.0000  VIRIAL  =         0.0000  VOLUME     =       353.0024
                                                    Density    =         0.0084
 DV/DL  =         3.5962
 ------------------------------------------------------------------------------

      A V E R A G E S   O V E R   50000 S T E P S

 NSTEP =   500000   TIME(PS) =    1020.000  TEMP(K) =   298.63  PRESS =     0.0
 Etot   =    -10413.2195  EKtot   =      2423.8858  EPtot      =    -12837.1053
 BOND   =        17.7877  ANGLE   =        32.2716  DIHED      =        18.7445
 1-4 NB =         8.0895  1-4 EEL =       -67.1745  VDWAALS    =      1892.1251
 EELEC  =    -14738.9493  EHBOND  =         0.0000  RESTRAINT  =         0.0000
 EKCMT  =         0.0000  VIRIAL  =         0.0000  VOLUME     =     41319.2733
                                                    Density    =         0.9875
 DV/DL  =         3.3536
 ------------------------------------------------------------------------------

      R M S  F L U C T U A T I O N S

 NSTEP =   500000   TIME(PS) =    1020.000  TEMP(K) =     4.69  PRESS =     0.0
 Etot   =        70.0770  EKtot   =        38.0825  EPtot      =        57.9503
 BOND   =         3.8017  ANGLE   =         3.2419  DIHED      =         2.5909
 1-4 NB =         0.9227  1-4 EEL =         2.0295  VDWAALS    =        55.7006
 EELEC  =        90.4778  EHBOND  =         0.0000  RESTRAINT  =         0.0000
 EKCMT  =         0.0000  VIRIAL  =         0.0000  VOLUME     =       353.0024
                                                    Density    =         0.0084
 DV/DL  =         3.5962
 ------------------------------------------------------------------------------

      DV/DL, AVERAGES OVER   50000 STEPS

 NSTEP =   500000   TIME(PS) =    1020.000  TEMP(K) =     4.69  PRESS =     0.0
 Etot   =         0.0000  EKtot   =         0.0000  EPtot      =         3.3197
 BOND   =         0.0000  ANGLE   =         0.0000  DIHED      =         0.0000
 1-4 NB =         0.0000  1-4 EEL =         0.0000  VDWAALS    =        -0.2540
 EELEC  =        -0.2355  EHBOND  =         0.0000  RESTRAINT  =         0.0000
 EKCMT  =         0.0000  VIRIAL  =         0.0000  VOLUME     =         0.0000
                                                    Density    =         0.0000
 DV/DL  =         3.3197
 ------------------------------------------------------------------------------

      A V E R A G E S   O V E R  500000 S T E P S

 NSTEP =   500000   TIME(PS) =    1020.000  TEMP(K) =   298.74  PRESS =     0.0
 Etot   =    -10414.1628  EKtot   =      2424.7951  EPtot      =    -12838.9579
 BOND   =        17.8179  ANGLE   =        32.2631  DIHED      =        18.4981
 1-4 NB =         7.9231  1-4 EEL =       -69.5223  VDWAALS    =      1897.7552
 EELEC  =    -14743.6930  EHBOND  =         0.0000  RESTRAINT  =         0.0000
 EKCMT  =         0.0000  VIRIAL  =         0.0000  VOLUME     =     41254.7610
                                                    Density    =         0.9877
 DV/DL  =         3.5127
 ------------------------------------------------------------------------------

      R M S  F L U C T U A T I O N S

 NSTEP =   500000   TIME(PS) =    1020.000  TEMP(K) =     5.60  PRESS =     0.0
 Etot   =       112.8958  EKtot   =        45.4696  EPtot      =        86.2619
 BOND   =         3.7615  ANGLE   =         3.2337  DIHED      =         2.6656
 1-4 NB =         0.8921  1-4 EEL =         2.8572  VDWAALS    =        63.6472
 EELEC  =       130.1259  EHBOND  =         0.0000  RESTRAINT  =         0.0000
 EKCMT  =         0.0000  VIRIAL  =         0.0000  VOLUME     =       338.8111
                                                    Density    =         0.0081
 DV/DL  =         3.8316
 ------------------------------------------------------------------------------

      A V E R A G E S   O V E R  500000 S T E P S

 NSTEP =   500000   TIME(PS) =    1020.000  TEMP(K) =   298.74  PRESS =     0.0
 Etot   =    -10414.1541  EKtot   =      2424.8038  EPtot      =    -12838.9579
 BOND   =        17.8179  ANGLE   =        32.2631  DIHED      =        18.4981
 1-4 NB =         7.9231  1-4 EEL =       -69.5223  VDWAALS    =      1897.7552
 EELEC  =    -14743.6930  EHBOND  =         0.0000  RESTRAINT  =         0.0000
 EKCMT  =         0.0000  VIRIAL  =         0.0000  VOLUME     =     41254.7610
                                                    Density    =         0.9891
 DV/DL  =         3.5127
 ------------------------------------------------------------------------------

      R M S  F L U C T U A T I O N S

 NSTEP =   500000   TIME(PS) =    1020.000  TEMP(K) =     5.60  PRESS =     0.0
 Etot   =       112.8870  EKtot   =        45.4601  EPtot      =        86.2619
 BOND   =         3.7615  ANGLE   =         3.2337  DIHED      =         2.6656
 1-4 NB =         0.8921  1-4 EEL =         2.8572  VDWAALS    =        63.6472
 EELEC  =       130.1259  EHBOND  =         0.0000  RESTRAINT  =         0.0000
 EKCMT  =         0.0000  VIRIAL  =         0.0000  VOLUME     =       338.8111
                                                    Density    =         0.0081
 DV/DL  =         3.8316
 ------------------------------------------------------------------------------

      DV/DL, AVERAGES OVER  500000 STEPS

 NSTEP =   500000   TIME(PS) =    1020.000  TEMP(K) =     5.60  PRESS =     0.0
 Etot   =         0.0000  EKtot   =         0.0000  EPtot      =         3.4776
 BOND   =         0.0000  ANGLE   =         0.0000  DIHED      =         0.0000
 1-4 NB =         0.0000  1-4 EEL =         0.0000  VDWAALS    =        -0.2544
 EELEC  =        -0.2356  EHBOND  =         0.0000  RESTRAINT  =         0.0000
 EKCMT  =         0.0000  VIRIAL  =         0.0000  VOLUME     =         0.0000
                                                    Density    =         0.0000
 DV/DL  =         3.4776
 ------------------------------------------------------------------------------
