-------------------------------------------------------
          Amber 16 PMEMD                              2016
          -------------------------------------------------------

  [-O]verwriting output

File Assignments:

 Here is the input file:

TI/FEP, NpT, charge transformation
 &cntrl
 ! please adjust namelist parameters to your needs!

 ! parameters for general MD
 imin = 0, nstlim = 500000, irest = 1, ntx = 5, dt = 0.002,
 ntt = 3, temp0 = 298.0, gamma_ln = 2.0, ig = -1,
 ntb = 2,
 ntp = 1, barostat = 2, pres0 = 1.01325, taup = 2.0,
 ntwe = 1000, ntwx = 10000, ntpr = 1000, ntwr = 50000, ntave = 50000,
 ioutfm = 1, iwrap = 1, ntxo = 2,

 ! parameters for alchemical free energy simulation
 ntc = 2, ntf = 1,
 noshakemask = ':1,2',

 icfe = 1, ifsc = 0, clambda = 0.50, scalpha = 0.5, scbeta = 12.0,
 ifmbar = 0, bar_intervall = 500, bar_l_min = 0.0, bar_l_max = 1.0,
 bar_l_incr = 0.1,   ! ntpr = bar_intervall for alchemical analysis tool

 timask1=':1', timask2=':2',
scmask1='',
scmask2='',
 crgmask = '',
 /
 &ewald
 /

Note: ig = -1. Setting random seed to   772725 based on wallclock time in
      microseconds.

--------------------------------------------------------------------------------
   1.  RESOURCE   USE:
--------------------------------------------------------------------------------

 getting box info from netcdf restart file
 NATOM  =    5986 NTYPES =      15 NBONH =    5926 MBONA  =      62
 NTHETH =      94 MTHETA =      84 NPHIH =     149 MPHIA  =     130
 NHPARM =       0 NPARM  =       0 NNB   =    8354 NRES   =    1962
 NBONA  =      62 NTHETA =      84 NPHIA =     130 NUMBND =      20
 NUMANG =      30 NPTRA  =      21 NATYP =      16 NPHB   =       1
 IFBOX  =       1 NMXRS  =      53 IFCAP =       0 NEXTRA =       0
 NCOPY  =       0

     BOX TYPE: RECTILINEAR

--------------------------------------------------------------------------------
   2.  CONTROL  DATA  FOR  THE  RUN
--------------------------------------------------------------------------------

INT

General flags:
     imin    =       0, nmropt  =       0

Nature and format of input:
     ntx     =       5, irest   =       1, ntrx    =       1

Nature and format of output:
     ntxo    =       2, ntpr    =    1000, ntrx    =       1, ntwr    =   50000
     iwrap   =       1, ntwx    =   10000, ntwv    =       0, ntwe    =    1000
     ioutfm  =       1, ntwprt  =       0, idecomp =       0, rbornstat=      0

Potential function:
     ntf     =       1, ntb     =       2, igb     =       0, nsnb    =      25
     ipol    =       0, gbsa    =       0, iesp    =       0
     dielc   =   1.00000, cut     =   8.00000, intdiel =   1.00000

Frozen or restrained atoms:
     ibelly  =       0, ntr     =       0

Molecular dynamics:
     nstlim  =    500000, nscm    =      1000, nrespa  =         1
     t       =   0.00000, dt      =   0.00200, vlimit  =  -1.00000

Langevin dynamics temperature regulation:
     ig      =  772725
     temp0   = 298.00000, tempi   =   0.00000, gamma_ln=   2.00000

Pressure regulation:
     ntp     =       1
     pres0   =   1.01325, comp    =  44.60000, taup    =   2.00000
     Monte-Carlo Barostat:
     mcbarint  =     100

SHAKE:
     ntc     =       2, jfastw  =       0
     tol     =   0.00001

Free energy options:
     icfe    =       1, ifsc    =       0, klambda =       1
     clambda =  0.5000, scalpha =  0.5000, scbeta  = 12.0000
     sceeorder =       2
     dynlmb =  0.0000 logdvdl =       0

Ewald parameters:
     verbose =       0, ew_type =       0, nbflag  =       1, use_pme =       1
     vdwmeth =       1, eedmeth =       1, netfrc  =       1
     Box X =   40.877   Box Y =   43.011   Box Z =   34.124
     Alpha =   90.000   Beta  =   90.000   Gamma =   90.000
     NFFT1 =   48       NFFT2 =   48       NFFT3 =   36
     Cutoff=    8.000   Tol   =0.100E-04
     Ewald Coefficient =  0.34864
     Interpolation order =    4
     TI Mask 1 :1; matches     53 atoms
     TI Mask 2 :2; matches     53 atoms
     TI region 1:    5933 atoms
     TI region 2:    5933 atoms
     Checking for mismatched coordinates.
 Noshake mask :1,2; matches     106 atoms.

--------------------------------------------------------------------------------
   3.  ATOMIC COORDINATES AND VELOCITIES
--------------------------------------------------------------------------------

INT
 begin time read from input coords =    20.000 ps

 Number of triangulated 3-point waters found:     1960
   Removing shake constraints from C30   INT   1 -- H52   INT   1
   Removing shake constraints from C30   INT   1 -- H53   INT   1
   Removing shake constraints from C30   INT   1 -- H51   INT   1
   Removing shake constraints from C26   INT   1 -- H47   INT   1
   Removing shake constraints from C26   INT   1 -- H48   INT   1
   Removing shake constraints from C26   INT   1 -- H49   INT   1
   Removing shake constraints from C24   INT   1 -- H46   INT   1
   Removing shake constraints from N27   INT   1 -- H50   INT   1
   Removing shake constraints from C21   INT   1 -- H45   INT   1
   Removing shake constraints from C20   INT   1 -- H42   INT   1
   Removing shake constraints from C20   INT   1 -- H43   INT   1
   Removing shake constraints from C20   INT   1 -- H44   INT   1
   Removing shake constraints from C16   INT   1 -- H40   INT   1
   Removing shake constraints from C16   INT   1 -- H41   INT   1
   Removing shake constraints from N13   INT   1 -- H39   INT   1
   Removing shake constraints from N9    INT   1 -- H38   INT   1
   Removing shake constraints from N9    INT   1 -- H37   INT   1
   Removing shake constraints from C7    INT   1 -- H36   INT   1
   Removing shake constraints from C2    INT   1 -- H34   INT   1
   Removing shake constraints from C2    INT   1 -- H35   INT   1
   Removing shake constraints from C1    INT   1 -- H31   INT   1
   Removing shake constraints from C1    INT   1 -- H32   INT   1
   Removing shake constraints from C1    INT   1 -- H33   INT   1
   Removing shake constraints from C30   L1    2 -- H52   L1    2
   Removing shake constraints from C30   L1    2 -- H53   L1    2
   Removing shake constraints from C30   L1    2 -- H51   L1    2
   Removing shake constraints from C26   L1    2 -- H47   L1    2
   Removing shake constraints from C26   L1    2 -- H48   L1    2
   Removing shake constraints from C26   L1    2 -- H49   L1    2
   Removing shake constraints from C24   L1    2 -- H46   L1    2
   Removing shake constraints from N27   L1    2 -- H50   L1    2
   Removing shake constraints from C21   L1    2 -- H45   L1    2
   Removing shake constraints from C20   L1    2 -- H42   L1    2
   Removing shake constraints from C20   L1    2 -- H43   L1    2
   Removing shake constraints from C20   L1    2 -- H44   L1    2
   Removing shake constraints from C16   L1    2 -- H40   L1    2
   Removing shake constraints from C16   L1    2 -- H41   L1    2
   Removing shake constraints from N13   L1    2 -- H39   L1    2
   Removing shake constraints from N9    L1    2 -- H38   L1    2
   Removing shake constraints from N9    L1    2 -- H37   L1    2
   Removing shake constraints from C7    L1    2 -- H36   L1    2
   Removing shake constraints from C2    L1    2 -- H34   L1    2
   Removing shake constraints from C2    L1    2 -- H35   L1    2
   Removing shake constraints from C1    L1    2 -- H31   L1    2
   Removing shake constraints from C1    L1    2 -- H32   L1    2
   Removing shake constraints from C1    L1    2 -- H33   L1    2
 Number of shake restraints removed:       46

     Sum of charges for TI region  1 =   0.00001100
     Forcing neutrality...

     Sum of charges for TI region  2 =  -0.00001000
     Forcing neutrality...

--------------------------------------------------------------------------------
   4.  RESULTS
 NSTEP =     1000   TIME(PS) =      22.000  TEMP(K) =   281.44  PRESS =     0.0
 Etot   =    -16348.4045  EKtot   =      3339.3904  EPtot      =    -19687.7949
 BOND   =        21.6589  ANGLE   =        29.5066  DIHED      =        25.9600
 1-4 NB =        15.6649  1-4 EEL =      -667.7913  VDWAALS    =      3103.0169
 EELEC  =    -22215.8109  EHBOND  =         0.0000  RESTRAINT  =         0.0000
 EKCMT  =         0.0000  VIRIAL  =         0.0000  VOLUME     =     61449.2170
                                                    Density    =         0.9654
 DV/DL  =       -60.8724
 ------------------------------------------------------------------------------

      A V E R A G E S   O V E R   50000 S T E P S

 NSTEP =    50000   TIME(PS) =     120.000  TEMP(K) =   296.36  PRESS =     0.0
 Etot   =    -15578.6999  EKtot   =      3516.4100  EPtot      =    -19095.1100
 BOND   =        21.8164  ANGLE   =        24.5540  DIHED      =        21.3103
 1-4 NB =        15.5496  1-4 EEL =      -665.2145  VDWAALS    =      2805.8501
 EELEC  =    -21318.9760  EHBOND  =         0.0000  RESTRAINT  =         0.0000
 EKCMT  =         0.0000  VIRIAL  =         0.0000  VOLUME     =     59941.1532
                                                    Density    =         0.9898
 DV/DL  =       -59.1121
 ------------------------------------------------------------------------------

      R M S  F L U C T U A T I O N S

 NSTEP =    50000   TIME(PS) =     120.000  TEMP(K) =    10.10  PRESS =     0.0
 Etot   =       395.6903  EKtot   =       119.8387  EPtot      =       286.3479
 BOND   =         4.2381  ANGLE   =         3.9900  DIHED      =         3.5556
 1-4 NB =         1.4664  1-4 EEL =         4.3098  VDWAALS    =       142.7114
 EELEC  =       415.6843  EHBOND  =         0.0000  RESTRAINT  =         0.0000
 EKCMT  =         0.0000  VIRIAL  =         0.0000  VOLUME     =       461.2757
                                                    Density    =         0.0076
 DV/DL  =         3.7573
 ------------------------------------------------------------------------------

      A V E R A G E S   O V E R   50000 S T E P S

 NSTEP =    50000   TIME(PS) =     120.000  TEMP(K) =   296.36  PRESS =     0.0
 Etot   =    -15578.6999  EKtot   =      3516.4100  EPtot      =    -19095.1100
 BOND   =        21.8164  ANGLE   =        24.5540  DIHED      =        21.3103
 1-4 NB =        15.5496  1-4 EEL =      -665.2145  VDWAALS    =      2805.8501
 EELEC  =    -21318.9760  EHBOND  =         0.0000  RESTRAINT  =         0.0000
 EKCMT  =         0.0000  VIRIAL  =         0.0000  VOLUME     =     59941.1532
                                                    Density    =         0.9898
 DV/DL  =       -59.1121
 ------------------------------------------------------------------------------

      R M S  F L U C T U A T I O N S

 NSTEP =    50000   TIME(PS) =     120.000  TEMP(K) =    10.10  PRESS =     0.0
 Etot   =       395.6903  EKtot   =       119.8387  EPtot      =       286.3479
 BOND   =         4.2381  ANGLE   =         3.9900  DIHED      =         3.5556
 1-4 NB =         1.4664  1-4 EEL =         4.3098  VDWAALS    =       142.7114
 EELEC  =       415.6843  EHBOND  =         0.0000  RESTRAINT  =         0.0000
 EKCMT  =         0.0000  VIRIAL  =         0.0000  VOLUME     =       461.2757
                                                    Density    =         0.0076
 DV/DL  =         3.7573
 ------------------------------------------------------------------------------

      DV/DL, AVERAGES OVER   50000 STEPS

 NSTEP =    50000   TIME(PS) =     120.000  TEMP(K) =    10.10  PRESS =     0.0
 Etot   =         0.0000  EKtot   =         0.0000  EPtot      =       -58.5216
 BOND   =         0.0000  ANGLE   =         0.0000  DIHED      =         0.0000
 1-4 NB =         0.0000  1-4 EEL =         0.0000  VDWAALS    =         0.0000
 EELEC  =       -79.8701  EHBOND  =         0.0000  RESTRAINT  =         0.0000
 EKCMT  =         0.0000  VIRIAL  =         0.0000  VOLUME     =         0.0000
                                                    Density    =         0.0000
 DV/DL  =       -58.5216
 ------------------------------------------------------------------------------

      A V E R A G E S   O V E R   50000 S T E P S

 NSTEP =   100000   TIME(PS) =     220.000  TEMP(K) =   297.50  PRESS =     0.0
 Etot   =    -15529.8939  EKtot   =      3530.0465  EPtot      =    -19059.9404
 BOND   =        21.5859  ANGLE   =        23.9633  DIHED      =        23.7518
 1-4 NB =        15.7786  1-4 EEL =      -666.8084  VDWAALS    =      2788.5848
 EELEC  =    -21266.7965  EHBOND  =         0.0000  RESTRAINT  =         0.0000
 EKCMT  =         0.0000  VIRIAL  =         0.0000  VOLUME     =     59856.2402
                                                    Density    =         0.9911
 DV/DL  =       -59.0174
 ------------------------------------------------------------------------------

      R M S  F L U C T U A T I O N S

 NSTEP =   100000   TIME(PS) =     220.000  TEMP(K) =     3.72  PRESS =     0.0
 Etot   =        76.1851  EKtot   =        44.0987  EPtot      =        63.1037
 BOND   =         4.1527  ANGLE   =         3.7685  DIHED      =         3.8352
 1-4 NB =         1.4963  1-4 EEL =         4.6410  VDWAALS    =        67.5122
 EELEC  =       104.9430  EHBOND  =         0.0000  RESTRAINT  =         0.0000
 EKCMT  =         0.0000  VIRIAL  =         0.0000  VOLUME     =       305.9351
                                                    Density    =         0.0051
 DV/DL  =         3.6336
 ------------------------------------------------------------------------------

      A V E R A G E S   O V E R   50000 S T E P S

 NSTEP =   100000   TIME(PS) =     220.000  TEMP(K) =   297.50  PRESS =     0.0
 Etot   =    -15529.8939  EKtot   =      3530.0465  EPtot      =    -19059.9404
 BOND   =        21.5859  ANGLE   =        23.9633  DIHED      =        23.7518
 1-4 NB =        15.7786  1-4 EEL =      -666.8084  VDWAALS    =      2788.5848
 EELEC  =    -21266.7965  EHBOND  =         0.0000  RESTRAINT  =         0.0000
 EKCMT  =         0.0000  VIRIAL  =         0.0000  VOLUME     =     59856.2402
                                                    Density    =         0.9911
 DV/DL  =       -59.0174
 ------------------------------------------------------------------------------

      R M S  F L U C T U A T I O N S

 NSTEP =   100000   TIME(PS) =     220.000  TEMP(K) =     3.72  PRESS =     0.0
 Etot   =        76.1851  EKtot   =        44.0987  EPtot      =        63.1037
 BOND   =         4.1527  ANGLE   =         3.7685  DIHED      =         3.8352
 1-4 NB =         1.4963  1-4 EEL =         4.6410  VDWAALS    =        67.5122
 EELEC  =       104.9430  EHBOND  =         0.0000  RESTRAINT  =         0.0000
 EKCMT  =         0.0000  VIRIAL  =         0.0000  VOLUME     =       305.9351
                                                    Density    =         0.0051
 DV/DL  =         3.6336
 ------------------------------------------------------------------------------

      DV/DL, AVERAGES OVER   50000 STEPS

 NSTEP =   100000   TIME(PS) =     220.000  TEMP(K) =     3.72  PRESS =     0.0
 Etot   =         0.0000  EKtot   =         0.0000  EPtot      =       -58.4280
 BOND   =         0.0000  ANGLE   =         0.0000  DIHED      =         0.0000
 1-4 NB =         0.0000  1-4 EEL =         0.0000  VDWAALS    =         0.0000
 EELEC  =       -79.8701  EHBOND  =         0.0000  RESTRAINT  =         0.0000
 EKCMT  =         0.0000  VIRIAL  =         0.0000  VOLUME     =         0.0000
                                                    Density    =         0.0000
 DV/DL  =       -58.4280
 ------------------------------------------------------------------------------

      A V E R A G E S   O V E R   50000 S T E P S

 NSTEP =   500000   TIME(PS) =    1020.000  TEMP(K) =   297.46  PRESS =     0.0
 Etot   =    -15523.9155  EKtot   =      3529.4982  EPtot      =    -19053.4138
 BOND   =        21.0142  ANGLE   =        24.2498  DIHED      =        21.5485
 1-4 NB =        15.6363  1-4 EEL =      -665.3669  VDWAALS    =      2785.2954
 EELEC  =    -21255.7911  EHBOND  =         0.0000  RESTRAINT  =         0.0000
 EKCMT  =         0.0000  VIRIAL  =         0.0000  VOLUME     =     59924.6589
                                                    Density    =         0.9900
 DV/DL  =       -59.1093
 ------------------------------------------------------------------------------

      R M S  F L U C T U A T I O N S

 NSTEP =   500000   TIME(PS) =    1020.000  TEMP(K) =     3.93  PRESS =     0.0
 Etot   =        86.5865  EKtot   =        46.6263  EPtot      =        70.7522
 BOND   =         4.1307  ANGLE   =         3.8543  DIHED      =         3.5030
 1-4 NB =         1.4168  1-4 EEL =         4.3067  VDWAALS    =        68.8074
 EELEC  =       114.8887  EHBOND  =         0.0000  RESTRAINT  =         0.0000
 EKCMT  =         0.0000  VIRIAL  =         0.0000  VOLUME     =       338.9119
                                                    Density    =         0.0056
 DV/DL  =         3.8011
 ------------------------------------------------------------------------------

      A V E R A G E S   O V E R   50000 S T E P S

 NSTEP =   500000   TIME(PS) =    1020.000  TEMP(K) =   297.46  PRESS =     0.0
 Etot   =    -15523.9155  EKtot   =      3529.4982  EPtot      =    -19053.4138
 BOND   =        21.0142  ANGLE   =        24.2498  DIHED      =        21.5485
 1-4 NB =        15.6363  1-4 EEL =      -665.3669  VDWAALS    =      2785.2954
 EELEC  =    -21255.7911  EHBOND  =         0.0000  RESTRAINT  =         0.0000
 EKCMT  =         0.0000  VIRIAL  =         0.0000  VOLUME     =     59924.6589
                                                    Density    =         0.9900
 DV/DL  =       -59.1093
 ------------------------------------------------------------------------------

      R M S  F L U C T U A T I O N S

 NSTEP =   500000   TIME(PS) =    1020.000  TEMP(K) =     3.93  PRESS =     0.0
 Etot   =        86.5865  EKtot   =        46.6263  EPtot      =        70.7522
 BOND   =         4.1307  ANGLE   =         3.8543  DIHED      =         3.5030
 1-4 NB =         1.4168  1-4 EEL =         4.3067  VDWAALS    =        68.8074
 EELEC  =       114.8887  EHBOND  =         0.0000  RESTRAINT  =         0.0000
 EKCMT  =         0.0000  VIRIAL  =         0.0000  VOLUME     =       338.9119
                                                    Density    =         0.0056
 DV/DL  =         3.8011
 ------------------------------------------------------------------------------

      DV/DL, AVERAGES OVER   50000 STEPS

 NSTEP =   500000   TIME(PS) =    1020.000  TEMP(K) =     3.93  PRESS =     0.0
 Etot   =         0.0000  EKtot   =         0.0000  EPtot      =       -58.5172
 BOND   =         0.0000  ANGLE   =         0.0000  DIHED      =         0.0000
 1-4 NB =         0.0000  1-4 EEL =         0.0000  VDWAALS    =         0.0000
 EELEC  =       -79.8701  EHBOND  =         0.0000  RESTRAINT  =         0.0000
 EKCMT  =         0.0000  VIRIAL  =         0.0000  VOLUME     =         0.0000
                                                    Density    =         0.0000
 DV/DL  =       -58.5172
 ------------------------------------------------------------------------------

      A V E R A G E S   O V E R  500000 S T E P S

 NSTEP =   500000   TIME(PS) =    1020.000  TEMP(K) =   297.43  PRESS =     0.0
 Etot   =    -15519.5613  EKtot   =      3529.1953  EPtot      =    -19048.7566
 BOND   =        21.4251  ANGLE   =        24.0132  DIHED      =        22.5422
 1-4 NB =        15.6789  1-4 EEL =      -665.7174  VDWAALS    =      2785.0070
 EELEC  =    -21251.7056  EHBOND  =         0.0000  RESTRAINT  =         0.0000
 EKCMT  =         0.0000  VIRIAL  =         0.0000  VOLUME     =     60038.8158
                                                    Density    =         0.9881
 DV/DL  =       -59.0440
 ------------------------------------------------------------------------------

      R M S  F L U C T U A T I O N S

 NSTEP =   500000   TIME(PS) =    1020.000  TEMP(K) =     4.87  PRESS =     0.0
 Etot   =       147.9937  EKtot   =        57.7858  EPtot      =       111.2933
 BOND   =         4.1610  ANGLE   =         3.9349  DIHED      =         3.8595
 1-4 NB =         1.4676  1-4 EEL =         4.3792  VDWAALS    =        78.8514
 EELEC  =       167.7479  EHBOND  =         0.0000  RESTRAINT  =         0.0000
 EKCMT  =         0.0000  VIRIAL  =         0.0000  VOLUME     =       360.4632
                                                    Density    =         0.0059
 DV/DL  =         3.7470
 ------------------------------------------------------------------------------

      A V E R A G E S   O V E R  500000 S T E P S

 NSTEP =   500000   TIME(PS) =    1020.000  TEMP(K) =   297.43  PRESS =     0.0
 Etot   =    -15519.5613  EKtot   =      3529.1953  EPtot      =    -19048.7566
 BOND   =        21.4251  ANGLE   =        24.0132  DIHED      =        22.5422
 1-4 NB =        15.6789  1-4 EEL =      -665.7174  VDWAALS    =      2785.0070
 EELEC  =    -21251.7056  EHBOND  =         0.0000  RESTRAINT  =         0.0000
 EKCMT  =         0.0000  VIRIAL  =         0.0000  VOLUME     =     60038.8158
                                                    Density    =         0.9881
 DV/DL  =       -59.0440
 ------------------------------------------------------------------------------

      R M S  F L U C T U A T I O N S

 NSTEP =   500000   TIME(PS) =    1020.000  TEMP(K) =     4.87  PRESS =     0.0
 Etot   =       147.9937  EKtot   =        57.7858  EPtot      =       111.2933
 BOND   =         4.1610  ANGLE   =         3.9349  DIHED      =         3.8595
 1-4 NB =         1.4676  1-4 EEL =         4.3792  VDWAALS    =        78.8514
 EELEC  =       167.7479  EHBOND  =         0.0000  RESTRAINT  =         0.0000
 EKCMT  =         0.0000  VIRIAL  =         0.0000  VOLUME     =       360.4632
                                                    Density    =         0.0059
 DV/DL  =         3.7470
 ------------------------------------------------------------------------------

      DV/DL, AVERAGES OVER  500000 STEPS

 NSTEP =   500000   TIME(PS) =    1020.000  TEMP(K) =     4.87  PRESS =     0.0
 Etot   =         0.0000  EKtot   =         0.0000  EPtot      =       -58.4537
 BOND   =         0.0000  ANGLE   =         0.0000  DIHED      =         0.0000
 1-4 NB =         0.0000  1-4 EEL =         0.0000  VDWAALS    =         0.0000
 EELEC  =       -79.8701  EHBOND  =         0.0000  RESTRAINT  =         0.0000
 EKCMT  =         0.0000  VIRIAL  =         0.0000  VOLUME     =         0.0000
                                                    Density    =         0.0000
 DV/DL  =       -58.4537
 ------------------------------------------------------------------------------
