-------------------------------------------------------
          Amber 16 PMEMD                              2016
          -------------------------------------------------------

  [-O]verwriting output

File Assignments:

 Here is the input file:

TI/FEP, NpT, vdW+bonded transformation
 &cntrl
 ! please adjust namelist parameters to your needs!

 ! parameters for general MD
 imin = 0, nstlim = 500000, irest = 1, ntx = 5, dt = 0.002,
 ntt = 3, temp0 = 298.0, gamma_ln = 2.0, ig = -1,
 ntb = 2,
 ntp = 1, barostat = 2, pres0 = 1.01325, taup = 2.0,
 ntwe = 100, ntwx = 10000, ntpr = 1000, ntwr = 50000, ntave = 50000,
 ioutfm = 1, iwrap = 1, ntxo = 2,

 ! parameters for alchemical free energy simulation
 ntc = 2, ntf = 1,
 noshakemask = ':1,2',

 icfe = 1, ifsc = 1, clambda = 0.9520, scalpha = 0.5, scbeta = 12.0,
 ifmbar = 1, mbar_lambda = 0.0 0.0479 0.1150 0.2063 0.3160 0.4373 0.5626 0.6839
 mbar_states = 12, bar_intervall = 1000,   ! ntpr = bar_intervall for alchemica

 timask1=':1', timask2=':2',
scmask1=':1@H34',
scmask2=':2@Cl18',
 crgmask = ':1@H34 | :2@Cl18',
 /
 &ewald
 /

Note: ig = -1. Setting random seed to    67680 based on wallclock time in
      microseconds.

--------------------------------------------------------------------------------
   1.  RESOURCE   USE:
--------------------------------------------------------------------------------

 getting box info from netcdf restart file
 NATOM  =    4115 NTYPES =      13 NBONH =    4066 MBONA  =      55
 NTHETH =      78 MTHETA =      84 NPHIH =     153 MPHIA  =     133
 NHPARM =       0 NPARM  =       0 NNB   =    5842 NRES   =    1345
 NBONA  =      55 NTHETA =      84 NPHIA =     133 NUMBND =      22
 NUMANG =      35 NPTRA  =      14 NATYP =      17 NPHB   =       1
 IFBOX  =       1 NMXRS  =      43 IFCAP =       0 NEXTRA =       0
 NCOPY  =       0

     BOX TYPE: RECTILINEAR

--------------------------------------------------------------------------------
   2.  CONTROL  DATA  FOR  THE  RUN
--------------------------------------------------------------------------------

L0

General flags:
     imin    =       0, nmropt  =       0

Nature and format of input:
     ntx     =       5, irest   =       1, ntrx    =       1

Nature and format of output:
     ntxo    =       2, ntpr    =    1000, ntrx    =       1, ntwr    =   50000
     iwrap   =       1, ntwx    =   10000, ntwv    =       0, ntwe    =     100
     ioutfm  =       1, ntwprt  =       0, idecomp =       0, rbornstat=      0

Potential function:
     ntf     =       1, ntb     =       2, igb     =       0, nsnb    =      25
     ipol    =       0, gbsa    =       0, iesp    =       0
     dielc   =   1.00000, cut     =   8.00000, intdiel =   1.00000

Frozen or restrained atoms:
     ibelly  =       0, ntr     =       0

Molecular dynamics:
     nstlim  =    500000, nscm    =      1000, nrespa  =         1
     t       =   0.00000, dt      =   0.00200, vlimit  =  -1.00000

Langevin dynamics temperature regulation:
     ig      =   67680
     temp0   = 298.00000, tempi   =   0.00000, gamma_ln=   2.00000

Pressure regulation:
     ntp     =       1
     pres0   =   1.01325, comp    =  44.60000, taup    =   2.00000
     Monte-Carlo Barostat:
     mcbarint  =     100

SHAKE:
     ntc     =       2, jfastw  =       0
     tol     =   0.00001

Free energy options:
     icfe    =       1, ifsc    =       1, klambda =       1
     clambda =  0.9520, scalpha =  0.5000, scbeta  = 12.0000
     sceeorder =       2
     dynlmb =  0.0000 logdvdl =       0

FEP MBAR options:
     ifmbar  =       1,  bar_intervall =     1000
     mbar_states =      12

Ewald parameters:
     verbose =       0, ew_type =       0, nbflag  =       1, use_pme =       1
     vdwmeth =       1, eedmeth =       1, netfrc  =       1
     Box X =   32.703   Box Y =   37.439   Box Z =   33.758
     Alpha =   90.000   Beta  =   90.000   Gamma =   90.000
     NFFT1 =   36       NFFT2 =   40       NFFT3 =   36
     Cutoff=    8.000   Tol   =0.100E-04
     Ewald Coefficient =  0.34864
     Interpolation order =    4
     TI Mask 1 :1; matches     43 atoms
     TI Mask 2 :2; matches     43 atoms
     TI region 1:    4072 atoms
     TI region 2:    4072 atoms
     SC Mask 1 :1@H34; matches      1 atoms
     SC Mask 2 :2@Cl18; matches      1 atoms
Removing charge of       0.1510 from atom      43
Removing charge of      -0.0609 from atom      86
Total charge of   0.09010100 removed from       2 atoms

    MBAR - lambda values considered:
      12 total:  0.0000 0.0479 0.1150 0.2063 0.3160 0.4373 0.5626 0.6839 0.7936 0.8849 0.9520 1.0000
    Extra energies will be computed    500 times.
 Noshake mask :1,2; matches      86 atoms.

--------------------------------------------------------------------------------
   3.  ATOMIC COORDINATES AND VELOCITIES
--------------------------------------------------------------------------------

L0
 begin time read from input coords =    20.000 ps

     Molecule     1 is partially softcore
     Molecule     2 is partially softcore
 Number of triangulated 3-point waters found:     1343
   Removing shake constraints from C22   L0    1 -- H41   L0    1
   Removing shake constraints from C22   L0    1 -- H42   L0    1
   Removing shake constraints from C21   L0    1 -- H39   L0    1
   Removing shake constraints from C21   L0    1 -- H40   L0    1
   Removing shake constraints from C20   L0    1 -- H38   L0    1
   Removing shake constraints from C19   L0    1 -- H37   L0    1
   Removing shake constraints from C18   L0    1 -- H36   L0    1
   Removing shake constraints from C15   L0    1 -- H35   L0    1
   Removing shake constraints from C14   L0    1 -- H34   L0    1
   Removing shake constraints from C13   L0    1 -- H33   L0    1
   Removing shake constraints from C10   L0    1 -- H32   L0    1
   Removing shake constraints from C9    L0    1 -- H31   L0    1
   Removing shake constraints from C8    L0    1 -- H30   L0    1
   Removing shake constraints from N5    L0    1 -- H29   L0    1
   Removing shake constraints from N4    L0    1 -- H43   L0    1
   Removing shake constraints from N4    L0    1 -- H28   L0    1
   Removing shake constraints from C1    L0    1 -- H25   L0    1
   Removing shake constraints from C1    L0    1 -- H26   L0    1
   Removing shake constraints from C1    L0    1 -- H27   L0    1
   Removing shake constraints from C23   L1    2 -- H41   L1    2
   Removing shake constraints from C23   L1    2 -- H42   L1    2
   Removing shake constraints from C22   L1    2 -- H39   L1    2
   Removing shake constraints from C22   L1    2 -- H40   L1    2
   Removing shake constraints from C21   L1    2 -- H38   L1    2
   Removing shake constraints from C20   L1    2 -- H37   L1    2
   Removing shake constraints from C13   L1    2 -- H34   L1    2
   Removing shake constraints from C16   L1    2 -- H35   L1    2
   Removing shake constraints from C19   L1    2 -- H36   L1    2
   Removing shake constraints from C10   L1    2 -- H33   L1    2
   Removing shake constraints from C9    L1    2 -- H32   L1    2
   Removing shake constraints from C8    L1    2 -- H31   L1    2
   Removing shake constraints from N5    L1    2 -- H30   L1    2
   Removing shake constraints from N4    L1    2 -- H43   L1    2
   Removing shake constraints from N4    L1    2 -- H29   L1    2
   Removing shake constraints from C1    L1    2 -- H26   L1    2
   Removing shake constraints from C1    L1    2 -- H27   L1    2
   Removing shake constraints from C1    L1    2 -- H28   L1    2
 WARNING: SHAKEn bond for atoms       14       43 is partially softcore.
 Coordinates for common atoms will be synchronized from V0.
 Consider using noshake mask or disabling SHAKE.

 Number of shake restraints removed in TI region  1 :       19
 Number of shake restraints removed in TI region  2 :       18

     Sum of charges for TI region  1 =   0.84897300
     Assuming uniform neutralizing plasma

     Sum of charges for TI region  2 =   1.06096699
     Assuming uniform neutralizing plasma

--------------------------------------------------------------------------------
   4.  RESULTS
 NSTEP =     1000   TIME(PS) =      22.000  TEMP(K) =   290.08  PRESS =     0.0
 Etot   =    -10947.5711  EKtot   =      2354.4634  EPtot      =    -13302.0344
 BOND   =        12.2333  ANGLE   =        27.8784  DIHED      =        17.5114
 1-4 NB =         7.4966  1-4 EEL =       -70.2011  VDWAALS    =      2186.6775
 EELEC  =    -15483.6307  EHBOND  =         0.0000  RESTRAINT  =         0.0000
 EKCMT  =         0.0000  VIRIAL  =         0.0000  VOLUME     =     41610.8847
                                                    Density    =         0.9792
 DV/DL  =         1.2926
 ------------------------------------------------------------------------------

      A V E R A G E S   O V E R   50000 S T E P S

 NSTEP =    50000   TIME(PS) =     120.000  TEMP(K) =   297.73  PRESS =     0.0
 Etot   =    -10443.4310  EKtot   =      2416.6115  EPtot      =    -12860.0425
 BOND   =        17.9797  ANGLE   =        32.1001  DIHED      =        18.9845
 1-4 NB =         7.8725  1-4 EEL =       -69.5908  VDWAALS    =      1909.3534
 EELEC  =    -14776.7419  EHBOND  =         0.0000  RESTRAINT  =         0.0000
 EKCMT  =         0.0000  VIRIAL  =         0.0000  VOLUME     =     41361.7186
                                                    Density    =         0.9851
 DV/DL  =        -0.2045
 ------------------------------------------------------------------------------

      R M S  F L U C T U A T I O N S

 NSTEP =    50000   TIME(PS) =     120.000  TEMP(K) =    10.79  PRESS =     0.0
 Etot   =       281.6240  EKtot   =        87.5824  EPtot      =       203.3629
 BOND   =         3.8224  ANGLE   =         3.2685  DIHED      =         2.6598
 1-4 NB =         0.8526  1-4 EEL =         1.9202  VDWAALS    =       103.9830
 EELEC  =       294.6717  EHBOND  =         0.0000  RESTRAINT  =         0.0000
 EKCMT  =         0.0000  VIRIAL  =         0.0000  VOLUME     =       293.1967
                                                    Density    =         0.0070
 DV/DL  =         2.5848
 ------------------------------------------------------------------------------

      A V E R A G E S   O V E R   50000 S T E P S

 NSTEP =    50000   TIME(PS) =     120.000  TEMP(K) =   297.75  PRESS =     0.0
 Etot   =    -10443.3329  EKtot   =      2416.7095  EPtot      =    -12860.0425
 BOND   =        17.9797  ANGLE   =        32.1001  DIHED      =        18.9845
 1-4 NB =         7.8725  1-4 EEL =       -69.5908  VDWAALS    =      1909.3534
 EELEC  =    -14776.7419  EHBOND  =         0.0000  RESTRAINT  =         0.0000
 EKCMT  =         0.0000  VIRIAL  =         0.0000  VOLUME     =     41361.7186
                                                    Density    =         0.9865
 DV/DL  =        -0.2045
 ------------------------------------------------------------------------------

      R M S  F L U C T U A T I O N S

 NSTEP =    50000   TIME(PS) =     120.000  TEMP(K) =    10.79  PRESS =     0.0
 Etot   =       281.6078  EKtot   =        87.5660  EPtot      =       203.3629
 BOND   =         3.8224  ANGLE   =         3.2685  DIHED      =         2.6598
 1-4 NB =         0.8526  1-4 EEL =         1.9202  VDWAALS    =       103.9830
 EELEC  =       294.6717  EHBOND  =         0.0000  RESTRAINT  =         0.0000
 EKCMT  =         0.0000  VIRIAL  =         0.0000  VOLUME     =       293.1967
                                                    Density    =         0.0070
 DV/DL  =         2.5848
 ------------------------------------------------------------------------------

      DV/DL, AVERAGES OVER   50000 STEPS

 NSTEP =    50000   TIME(PS) =     120.000  TEMP(K) =    10.79  PRESS =     0.0
 Etot   =         0.0000  EKtot   =         0.0000  EPtot      =        -0.2032
 BOND   =         0.0000  ANGLE   =         0.0000  DIHED      =         0.0000
 1-4 NB =         0.0000  1-4 EEL =         0.0000  VDWAALS    =        -0.2537
 EELEC  =        -0.2354  EHBOND  =         0.0000  RESTRAINT  =         0.0000
 EKCMT  =         0.0000  VIRIAL  =         0.0000  VOLUME     =         0.0000
                                                    Density    =         0.0000
 DV/DL  =        -0.2032
 ------------------------------------------------------------------------------

      A V E R A G E S   O V E R   50000 S T E P S

 NSTEP =   100000   TIME(PS) =     220.000  TEMP(K) =   298.55  PRESS =     0.0
 Etot   =    -10419.6436  EKtot   =      2423.2000  EPtot      =    -12842.8436
 BOND   =        18.0764  ANGLE   =        32.1011  DIHED      =        18.2912
 1-4 NB =         7.8779  1-4 EEL =       -69.7754  VDWAALS    =      1901.9194
 EELEC  =    -14751.3342  EHBOND  =         0.0000  RESTRAINT  =         0.0000
 EKCMT  =         0.0000  VIRIAL  =         0.0000  VOLUME     =     41322.3304
                                                    Density    =         0.9861
 DV/DL  =        -0.1833
 ------------------------------------------------------------------------------

      R M S  F L U C T U A T I O N S

 NSTEP =   100000   TIME(PS) =     220.000  TEMP(K) =     4.64  PRESS =     0.0
 Etot   =        66.7304  EKtot   =        37.6855  EPtot      =        55.1035
 BOND   =         3.8074  ANGLE   =         3.2979  DIHED      =         2.8119
 1-4 NB =         0.8719  1-4 EEL =         1.8936  VDWAALS    =        55.0531
 EELEC  =        87.6890  EHBOND  =         0.0000  RESTRAINT  =         0.0000
 EKCMT  =         0.0000  VIRIAL  =         0.0000  VOLUME     =       281.9857
                                                    Density    =         0.0067
 DV/DL  =         2.5186
 ------------------------------------------------------------------------------

      A V E R A G E S   O V E R   50000 S T E P S

 NSTEP =   100000   TIME(PS) =     220.000  TEMP(K) =   298.56  PRESS =     0.0
 Etot   =    -10419.5517  EKtot   =      2423.2918  EPtot      =    -12842.8436
 BOND   =        18.0764  ANGLE   =        32.1011  DIHED      =        18.2912
 1-4 NB =         7.8779  1-4 EEL =       -69.7754  VDWAALS    =      1901.9194
 EELEC  =    -14751.3342  EHBOND  =         0.0000  RESTRAINT  =         0.0000
 EKCMT  =         0.0000  VIRIAL  =         0.0000  VOLUME     =     41322.3304
                                                    Density    =         0.9874
 DV/DL  =        -0.1833
 ------------------------------------------------------------------------------

      R M S  F L U C T U A T I O N S

 NSTEP =   100000   TIME(PS) =     220.000  TEMP(K) =     4.65  PRESS =     0.0
 Etot   =        66.7748  EKtot   =        37.7198  EPtot      =        55.1035
 BOND   =         3.8074  ANGLE   =         3.2979  DIHED      =         2.8119
 1-4 NB =         0.8719  1-4 EEL =         1.8936  VDWAALS    =        55.0531
 EELEC  =        87.6890  EHBOND  =         0.0000  RESTRAINT  =         0.0000
 EKCMT  =         0.0000  VIRIAL  =         0.0000  VOLUME     =       281.9857
                                                    Density    =         0.0067
 DV/DL  =         2.5186
 ------------------------------------------------------------------------------

      DV/DL, AVERAGES OVER   50000 STEPS

 NSTEP =   100000   TIME(PS) =     220.000  TEMP(K) =     4.65  PRESS =     0.0
 Etot   =         0.0000  EKtot   =         0.0000  EPtot      =        -0.1816
 BOND   =         0.0000  ANGLE   =         0.0000  DIHED      =         0.0000
 1-4 NB =         0.0000  1-4 EEL =         0.0000  VDWAALS    =        -0.2540
 EELEC  =        -0.2355  EHBOND  =         0.0000  RESTRAINT  =         0.0000
 EKCMT  =         0.0000  VIRIAL  =         0.0000  VOLUME     =         0.0000
                                                    Density    =         0.0000
 DV/DL  =        -0.1816
 ------------------------------------------------------------------------------

      A V E R A G E S   O V E R   50000 S T E P S

 NSTEP =   500000   TIME(PS) =    1020.000  TEMP(K) =   298.47  PRESS =     0.0
 Etot   =    -10421.9680  EKtot   =      2422.5720  EPtot      =    -12844.5399
 BOND   =        18.0757  ANGLE   =        31.8750  DIHED      =        18.0263
 1-4 NB =         7.8842  1-4 EEL =       -69.1822  VDWAALS    =      1898.0041
 EELEC  =    -14749.2230  EHBOND  =         0.0000  RESTRAINT  =         0.0000
 EKCMT  =         0.0000  VIRIAL  =         0.0000  VOLUME     =     41228.6966
                                                    Density    =         0.9883
 DV/DL  =        -0.1951
 ------------------------------------------------------------------------------

      R M S  F L U C T U A T I O N S

 NSTEP =   500000   TIME(PS) =    1020.000  TEMP(K) =     4.56  PRESS =     0.0
 Etot   =        64.1369  EKtot   =        37.0053  EPtot      =        54.1118
 BOND   =         3.8510  ANGLE   =         3.1789  DIHED      =         2.6059
 1-4 NB =         0.8538  1-4 EEL =         1.8228  VDWAALS    =        57.1048
 EELEC  =        89.4231  EHBOND  =         0.0000  RESTRAINT  =         0.0000
 EKCMT  =         0.0000  VIRIAL  =         0.0000  VOLUME     =       284.5216
                                                    Density    =         0.0068
 DV/DL  =         2.5098
 ------------------------------------------------------------------------------

      A V E R A G E S   O V E R   50000 S T E P S

 NSTEP =   500000   TIME(PS) =    1020.000  TEMP(K) =   298.46  PRESS =     0.0
 Etot   =    -10422.0234  EKtot   =      2422.5165  EPtot      =    -12844.5399
 BOND   =        18.0757  ANGLE   =        31.8750  DIHED      =        18.0263
 1-4 NB =         7.8842  1-4 EEL =       -69.1822  VDWAALS    =      1898.0041
 EELEC  =    -14749.2230  EHBOND  =         0.0000  RESTRAINT  =         0.0000
 EKCMT  =         0.0000  VIRIAL  =         0.0000  VOLUME     =     41228.6966
                                                    Density    =         0.9897
 DV/DL  =        -0.1951
 ------------------------------------------------------------------------------

      R M S  F L U C T U A T I O N S

 NSTEP =   500000   TIME(PS) =    1020.000  TEMP(K) =     4.56  PRESS =     0.0
 Etot   =        64.1645  EKtot   =        37.0129  EPtot      =        54.1118
 BOND   =         3.8510  ANGLE   =         3.1789  DIHED      =         2.6059
 1-4 NB =         0.8538  1-4 EEL =         1.8228  VDWAALS    =        57.1048
 EELEC  =        89.4231  EHBOND  =         0.0000  RESTRAINT  =         0.0000
 EKCMT  =         0.0000  VIRIAL  =         0.0000  VOLUME     =       284.5216
                                                    Density    =         0.0068
 DV/DL  =         2.5098
 ------------------------------------------------------------------------------

      DV/DL, AVERAGES OVER   50000 STEPS

 NSTEP =   500000   TIME(PS) =    1020.000  TEMP(K) =     4.56  PRESS =     0.0
 Etot   =         0.0000  EKtot   =         0.0000  EPtot      =        -0.1920
 BOND   =         0.0000  ANGLE   =         0.0000  DIHED      =         0.0000
 1-4 NB =         0.0000  1-4 EEL =         0.0000  VDWAALS    =        -0.2545
 EELEC  =        -0.2356  EHBOND  =         0.0000  RESTRAINT  =         0.0000
 EKCMT  =         0.0000  VIRIAL  =         0.0000  VOLUME     =         0.0000
                                                    Density    =         0.0000
 DV/DL  =        -0.1920
 ------------------------------------------------------------------------------

      A V E R A G E S   O V E R  500000 S T E P S

 NSTEP =   500000   TIME(PS) =    1020.000  TEMP(K) =   298.74  PRESS =     0.0
 Etot   =    -10416.4049  EKtot   =      2424.7478  EPtot      =    -12841.1527
 BOND   =        17.9400  ANGLE   =        32.1282  DIHED      =        18.5080
 1-4 NB =         7.8991  1-4 EEL =       -69.9295  VDWAALS    =      1898.3616
 EELEC  =    -14746.0602  EHBOND  =         0.0000  RESTRAINT  =         0.0000
 EKCMT  =         0.0000  VIRIAL  =         0.0000  VOLUME     =     41261.6796
                                                    Density    =         0.9875
 DV/DL  =        -0.1982
 ------------------------------------------------------------------------------

      R M S  F L U C T U A T I O N S

 NSTEP =   500000   TIME(PS) =    1020.000  TEMP(K) =     5.57  PRESS =     0.0
 Etot   =       109.1263  EKtot   =        45.2430  EPtot      =        82.9603
 BOND   =         3.7750  ANGLE   =         3.2472  DIHED      =         2.6856
 1-4 NB =         0.8787  1-4 EEL =         2.3260  VDWAALS    =        63.3229
 EELEC  =       126.6494  EHBOND  =         0.0000  RESTRAINT  =         0.0000
 EKCMT  =         0.0000  VIRIAL  =         0.0000  VOLUME     =       289.4492
                                                    Density    =         0.0069
 DV/DL  =         2.5832
 ------------------------------------------------------------------------------

      A V E R A G E S   O V E R  500000 S T E P S

 NSTEP =   500000   TIME(PS) =    1020.000  TEMP(K) =   298.74  PRESS =     0.0
 Etot   =    -10416.3780  EKtot   =      2424.7747  EPtot      =    -12841.1527
 BOND   =        17.9400  ANGLE   =        32.1282  DIHED      =        18.5080
 1-4 NB =         7.8991  1-4 EEL =       -69.9295  VDWAALS    =      1898.3616
 EELEC  =    -14746.0602  EHBOND  =         0.0000  RESTRAINT  =         0.0000
 EKCMT  =         0.0000  VIRIAL  =         0.0000  VOLUME     =     41261.6796
                                                    Density    =         0.9889
 DV/DL  =        -0.1982
 ------------------------------------------------------------------------------

      R M S  F L U C T U A T I O N S

 NSTEP =   500000   TIME(PS) =    1020.000  TEMP(K) =     5.57  PRESS =     0.0
 Etot   =       109.1242  EKtot   =        45.2443  EPtot      =        82.9603
 BOND   =         3.7750  ANGLE   =         3.2472  DIHED      =         2.6856
 1-4 NB =         0.8787  1-4 EEL =         2.3260  VDWAALS    =        63.3229
 EELEC  =       126.6494  EHBOND  =         0.0000  RESTRAINT  =         0.0000
 EKCMT  =         0.0000  VIRIAL  =         0.0000  VOLUME     =       289.4492
                                                    Density    =         0.0069
 DV/DL  =         2.5832
 ------------------------------------------------------------------------------

      DV/DL, AVERAGES OVER  500000 STEPS

 NSTEP =   500000   TIME(PS) =    1020.000  TEMP(K) =     5.57  PRESS =     0.0
 Etot   =         0.0000  EKtot   =         0.0000  EPtot      =        -0.1963
 BOND   =         0.0000  ANGLE   =         0.0000  DIHED      =         0.0000
 1-4 NB =         0.0000  1-4 EEL =         0.0000  VDWAALS    =        -0.2543
 EELEC  =        -0.2356  EHBOND  =         0.0000  RESTRAINT  =         0.0000
 EKCMT  =         0.0000  VIRIAL  =         0.0000  VOLUME     =         0.0000
                                                    Density    =         0.0000
 DV/DL  =        -0.1963
 ------------------------------------------------------------------------------
