-------------------------------------------------------
          Amber 16 PMEMD                              2016
          -------------------------------------------------------

  [-O]verwriting output

File Assignments:

 Here is the input file:

TI/FEP, NpT, recharge transformation
 &cntrl
 ! please adjust namelist parameters to your needs!

 ! parameters for general MD
 imin = 0, nstlim = 500000, irest = 1, ntx = 5, dt = 0.002,
 ntt = 3, temp0 = 298.0, gamma_ln = 2.0, ig = -1,
 ntb = 2,
 ntp = 1, barostat = 2, pres0 = 1.01325, taup = 2.0,
 ntwe = 100, ntwx = 10000, ntpr = 1000, ntwr = 50000, ntave = 50000,
 ioutfm = 1, iwrap = 1, ntxo = 2,

 ! parameters for alchemical free energy simulation
 ntc = 2, ntf = 1,
 noshakemask = ':1,2',

 icfe = 1, ifsc = 0, clambda = 0.00, scalpha = 0.5, scbeta = 12.0,
 ifmbar = 1, mbar_lambda = 0.00 0.25 0.50 0.75 1.00,
 mbar_states = 5, bar_intervall = 1000,   ! ntpr = bar_intervall for alchemical

 timask1=':1', timask2=':2',
scmask1='',
scmask2='',
 crgmask = ':1@Cl18',
 /
 &ewald
 /

Note: ig = -1. Setting random seed to   396437 based on wallclock time in
      microseconds.

--------------------------------------------------------------------------------
   1.  RESOURCE   USE:
--------------------------------------------------------------------------------

 getting box info from netcdf restart file
 NATOM  =    4115 NTYPES =      13 NBONH =    4065 MBONA  =      56
 NTHETH =      76 MTHETA =      86 NPHIH =     150 MPHIA  =     136
 NHPARM =       0 NPARM  =       0 NNB   =    5842 NRES   =    1345
 NBONA  =      56 NTHETA =      86 NPHIA =     136 NUMBND =      22
 NUMANG =      35 NPTRA  =      14 NATYP =      17 NPHB   =       1
 IFBOX  =       1 NMXRS  =      43 IFCAP =       0 NEXTRA =       0
 NCOPY  =       0

     BOX TYPE: RECTILINEAR

--------------------------------------------------------------------------------
   2.  CONTROL  DATA  FOR  THE  RUN
--------------------------------------------------------------------------------

L1

General flags:
     imin    =       0, nmropt  =       0

Nature and format of input:
     ntx     =       5, irest   =       1, ntrx    =       1

Nature and format of output:
     ntxo    =       2, ntpr    =    1000, ntrx    =       1, ntwr    =   50000
     iwrap   =       1, ntwx    =   10000, ntwv    =       0, ntwe    =     100
     ioutfm  =       1, ntwprt  =       0, idecomp =       0, rbornstat=      0

Potential function:
     ntf     =       1, ntb     =       2, igb     =       0, nsnb    =      25
     ipol    =       0, gbsa    =       0, iesp    =       0
     dielc   =   1.00000, cut     =   8.00000, intdiel =   1.00000

Frozen or restrained atoms:
     ibelly  =       0, ntr     =       0

Molecular dynamics:
     nstlim  =    500000, nscm    =      1000, nrespa  =         1
     t       =   0.00000, dt      =   0.00200, vlimit  =  -1.00000

Langevin dynamics temperature regulation:
     ig      =  396437
     temp0   = 298.00000, tempi   =   0.00000, gamma_ln=   2.00000

Pressure regulation:
     ntp     =       1
     pres0   =   1.01325, comp    =  44.60000, taup    =   2.00000
     Monte-Carlo Barostat:
     mcbarint  =     100

SHAKE:
     ntc     =       2, jfastw  =       0
     tol     =   0.00001

Free energy options:
     icfe    =       1, ifsc    =       0, klambda =       1
     clambda =  0.0000, scalpha =  0.5000, scbeta  = 12.0000
     sceeorder =       2
     dynlmb =  0.0000 logdvdl =       0

FEP MBAR options:
     ifmbar  =       1,  bar_intervall =     1000
     mbar_states =       5

Ewald parameters:
     verbose =       0, ew_type =       0, nbflag  =       1, use_pme =       1
     vdwmeth =       1, eedmeth =       1, netfrc  =       1
     Box X =   32.703   Box Y =   37.439   Box Z =   33.758
     Alpha =   90.000   Beta  =   90.000   Gamma =   90.000
     NFFT1 =   36       NFFT2 =   40       NFFT3 =   36
     Cutoff=    8.000   Tol   =0.100E-04
     Ewald Coefficient =  0.34864
     Interpolation order =    4
     TI Mask 1 :1; matches     43 atoms
     TI Mask 2 :2; matches     43 atoms
     TI region 1:    4072 atoms
     TI region 2:    4072 atoms
Removing charge of      -0.0609 from atom      43
Total charge of  -0.06094600 removed from       1 atoms

    MBAR - lambda values considered:
       5 total:  0.0000 0.2500 0.5000 0.7500 1.0000
    Extra energies will be computed    500 times.
     Checking for mismatched coordinates.
 Noshake mask :1,2; matches      86 atoms.

--------------------------------------------------------------------------------
   3.  ATOMIC COORDINATES AND VELOCITIES
--------------------------------------------------------------------------------

L1
 begin time read from input coords =    20.000 ps

 Number of triangulated 3-point waters found:     1343
   Removing shake constraints from C23   L1    1 -- H41   L1    1
   Removing shake constraints from C23   L1    1 -- H42   L1    1
   Removing shake constraints from C22   L1    1 -- H39   L1    1
   Removing shake constraints from C22   L1    1 -- H40   L1    1
   Removing shake constraints from C21   L1    1 -- H38   L1    1
   Removing shake constraints from C20   L1    1 -- H37   L1    1
   Removing shake constraints from C13   L1    1 -- H34   L1    1
   Removing shake constraints from C16   L1    1 -- H35   L1    1
   Removing shake constraints from C19   L1    1 -- H36   L1    1
   Removing shake constraints from C10   L1    1 -- H33   L1    1
   Removing shake constraints from C9    L1    1 -- H32   L1    1
   Removing shake constraints from C8    L1    1 -- H31   L1    1
   Removing shake constraints from N5    L1    1 -- H30   L1    1
   Removing shake constraints from N4    L1    1 -- H43   L1    1
   Removing shake constraints from N4    L1    1 -- H29   L1    1
   Removing shake constraints from C1    L1    1 -- H26   L1    1
   Removing shake constraints from C1    L1    1 -- H27   L1    1
   Removing shake constraints from C1    L1    1 -- H28   L1    1
   Removing shake constraints from C23   L1    2 -- H41   L1    2
   Removing shake constraints from C23   L1    2 -- H42   L1    2
   Removing shake constraints from C22   L1    2 -- H39   L1    2
   Removing shake constraints from C22   L1    2 -- H40   L1    2
   Removing shake constraints from C21   L1    2 -- H38   L1    2
   Removing shake constraints from C20   L1    2 -- H37   L1    2
   Removing shake constraints from C13   L1    2 -- H34   L1    2
   Removing shake constraints from C16   L1    2 -- H35   L1    2
   Removing shake constraints from C19   L1    2 -- H36   L1    2
   Removing shake constraints from C10   L1    2 -- H33   L1    2
   Removing shake constraints from C9    L1    2 -- H32   L1    2
   Removing shake constraints from C8    L1    2 -- H31   L1    2
   Removing shake constraints from N5    L1    2 -- H30   L1    2
   Removing shake constraints from N4    L1    2 -- H43   L1    2
   Removing shake constraints from N4    L1    2 -- H29   L1    2
   Removing shake constraints from C1    L1    2 -- H26   L1    2
   Removing shake constraints from C1    L1    2 -- H27   L1    2
   Removing shake constraints from C1    L1    2 -- H28   L1    2
 Number of shake restraints removed:       36

     Sum of charges for TI region  1 =   1.06096699
     Assuming uniform neutralizing plasma

     Sum of charges for TI region  2 =   1.00002099
     Assuming uniform neutralizing plasma

--------------------------------------------------------------------------------
   4.  RESULTS
 NSTEP =     1000   TIME(PS) =      22.000  TEMP(K) =   285.82  PRESS =     0.0
 Etot   =    -10922.8282  EKtot   =      2330.1516  EPtot      =    -13252.9798
 BOND   =        17.7824  ANGLE   =        32.9174  DIHED      =        15.6174
 1-4 NB =         6.6854  1-4 EEL =       -68.8003  VDWAALS    =      2098.2424
 EELEC  =    -15355.4245  EHBOND  =         0.0000  RESTRAINT  =         0.0000
 EKCMT  =         0.0000  VIRIAL  =         0.0000  VOLUME     =     42002.5953
                                                    Density    =         0.9714
 DV/DL  =        -1.3331
 ------------------------------------------------------------------------------

      A V E R A G E S   O V E R   50000 S T E P S

 NSTEP =    50000   TIME(PS) =     120.000  TEMP(K) =   296.52  PRESS =     0.0
 Etot   =    -10447.9809  EKtot   =      2417.3773  EPtot      =    -12865.3582
 BOND   =        17.8556  ANGLE   =        32.5693  DIHED      =        19.5331
 1-4 NB =         8.0300  1-4 EEL =       -69.4772  VDWAALS    =      1906.5573
 EELEC  =    -14780.4262  EHBOND  =         0.0000  RESTRAINT  =         0.0000
 EKCMT  =         0.0000  VIRIAL  =         0.0000  VOLUME     =     41192.5903
                                                    Density    =         0.9906
 DV/DL  =        -1.6163
 ------------------------------------------------------------------------------

      R M S  F L U C T U A T I O N S

 NSTEP =    50000   TIME(PS) =     120.000  TEMP(K) =    10.87  PRESS =     0.0
 Etot   =       281.8505  EKtot   =        88.5985  EPtot      =       202.5341
 BOND   =         3.7782  ANGLE   =         3.3748  DIHED      =         2.8675
 1-4 NB =         0.9353  1-4 EEL =         2.1062  VDWAALS    =       100.8297
 EELEC  =       289.9721  EHBOND  =         0.0000  RESTRAINT  =         0.0000
 EKCMT  =         0.0000  VIRIAL  =         0.0000  VOLUME     =       314.2630
                                                    Density    =         0.0075
 DV/DL  =         0.4887
 ------------------------------------------------------------------------------

      A V E R A G E S   O V E R   50000 S T E P S

 NSTEP =    50000   TIME(PS) =     120.000  TEMP(K) =   296.52  PRESS =     0.0
 Etot   =    -10447.9809  EKtot   =      2417.3773  EPtot      =    -12865.3582
 BOND   =        17.8556  ANGLE   =        32.5693  DIHED      =        19.5331
 1-4 NB =         8.0300  1-4 EEL =       -69.4772  VDWAALS    =      1906.5573
 EELEC  =    -14780.4262  EHBOND  =         0.0000  RESTRAINT  =         0.0000
 EKCMT  =         0.0000  VIRIAL  =         0.0000  VOLUME     =     41192.5903
                                                    Density    =         0.9906
 DV/DL  =        -1.6163
 ------------------------------------------------------------------------------

      R M S  F L U C T U A T I O N S

 NSTEP =    50000   TIME(PS) =     120.000  TEMP(K) =    10.87  PRESS =     0.0
 Etot   =       281.8505  EKtot   =        88.5985  EPtot      =       202.5341
 BOND   =         3.7782  ANGLE   =         3.3748  DIHED      =         2.8675
 1-4 NB =         0.9353  1-4 EEL =         2.1062  VDWAALS    =       100.8297
 EELEC  =       289.9721  EHBOND  =         0.0000  RESTRAINT  =         0.0000
 EKCMT  =         0.0000  VIRIAL  =         0.0000  VOLUME     =       314.2630
                                                    Density    =         0.0075
 DV/DL  =         0.4887
 ------------------------------------------------------------------------------

      DV/DL, AVERAGES OVER   50000 STEPS

 NSTEP =    50000   TIME(PS) =     120.000  TEMP(K) =    10.87  PRESS =     0.0
 Etot   =         0.0000  EKtot   =         0.0000  EPtot      =        -1.6002
 BOND   =         0.0000  ANGLE   =         0.0000  DIHED      =         0.0000
 1-4 NB =         0.0000  1-4 EEL =         0.0000  VDWAALS    =         0.0000
 EELEC  =        -0.2295  EHBOND  =         0.0000  RESTRAINT  =         0.0000
 EKCMT  =         0.0000  VIRIAL  =         0.0000  VOLUME     =         0.0000
                                                    Density    =         0.0000
 DV/DL  =        -1.6002
 ------------------------------------------------------------------------------

      A V E R A G E S   O V E R   50000 S T E P S

 NSTEP =   100000   TIME(PS) =     220.000  TEMP(K) =   298.36  PRESS =     0.0
 Etot   =    -10395.3983  EKtot   =      2432.4044  EPtot      =    -12827.8027
 BOND   =        18.5739  ANGLE   =        32.5091  DIHED      =        19.1830
 1-4 NB =         7.9224  1-4 EEL =       -69.8846  VDWAALS    =      1894.4623
 EELEC  =    -14730.5688  EHBOND  =         0.0000  RESTRAINT  =         0.0000
 EKCMT  =         0.0000  VIRIAL  =         0.0000  VOLUME     =     41231.9806
                                                    Density    =         0.9896
 DV/DL  =        -1.6429
 ------------------------------------------------------------------------------

      R M S  F L U C T U A T I O N S

 NSTEP =   100000   TIME(PS) =     220.000  TEMP(K) =     4.64  PRESS =     0.0
 Etot   =        67.0096  EKtot   =        37.8612  EPtot      =        55.3005
 BOND   =         3.8145  ANGLE   =         3.2809  DIHED      =         2.8799
 1-4 NB =         0.8819  1-4 EEL =         1.8721  VDWAALS    =        58.6383
 EELEC  =        92.6311  EHBOND  =         0.0000  RESTRAINT  =         0.0000
 EKCMT  =         0.0000  VIRIAL  =         0.0000  VOLUME     =       274.8035
                                                    Density    =         0.0066
 DV/DL  =         0.4922
 ------------------------------------------------------------------------------

      A V E R A G E S   O V E R   50000 S T E P S

 NSTEP =   100000   TIME(PS) =     220.000  TEMP(K) =   298.36  PRESS =     0.0
 Etot   =    -10395.3983  EKtot   =      2432.4044  EPtot      =    -12827.8027
 BOND   =        18.5739  ANGLE   =        32.5091  DIHED      =        19.1830
 1-4 NB =         7.9224  1-4 EEL =       -69.8846  VDWAALS    =      1894.4623
 EELEC  =    -14730.5688  EHBOND  =         0.0000  RESTRAINT  =         0.0000
 EKCMT  =         0.0000  VIRIAL  =         0.0000  VOLUME     =     41231.9806
                                                    Density    =         0.9896
 DV/DL  =        -1.6429
 ------------------------------------------------------------------------------

      R M S  F L U C T U A T I O N S

 NSTEP =   100000   TIME(PS) =     220.000  TEMP(K) =     4.64  PRESS =     0.0
 Etot   =        67.0096  EKtot   =        37.8612  EPtot      =        55.3005
 BOND   =         3.8145  ANGLE   =         3.2809  DIHED      =         2.8799
 1-4 NB =         0.8819  1-4 EEL =         1.8721  VDWAALS    =        58.6383
 EELEC  =        92.6311  EHBOND  =         0.0000  RESTRAINT  =         0.0000
 EKCMT  =         0.0000  VIRIAL  =         0.0000  VOLUME     =       274.8035
                                                    Density    =         0.0066
 DV/DL  =         0.4922
 ------------------------------------------------------------------------------

      DV/DL, AVERAGES OVER   50000 STEPS

 NSTEP =   100000   TIME(PS) =     220.000  TEMP(K) =     4.64  PRESS =     0.0
 Etot   =         0.0000  EKtot   =         0.0000  EPtot      =        -1.6264
 BOND   =         0.0000  ANGLE   =         0.0000  DIHED      =         0.0000
 1-4 NB =         0.0000  1-4 EEL =         0.0000  VDWAALS    =         0.0000
 EELEC  =        -0.2295  EHBOND  =         0.0000  RESTRAINT  =         0.0000
 EKCMT  =         0.0000  VIRIAL  =         0.0000  VOLUME     =         0.0000
                                                    Density    =         0.0000
 DV/DL  =        -1.6264
 ------------------------------------------------------------------------------

      A V E R A G E S   O V E R   50000 S T E P S

 NSTEP =   500000   TIME(PS) =    1020.000  TEMP(K) =   297.33  PRESS =     0.0
 Etot   =    -10413.6664  EKtot   =      2423.9499  EPtot      =    -12837.6163
 BOND   =        18.6003  ANGLE   =        32.9016  DIHED      =        19.6123
 1-4 NB =         8.0188  1-4 EEL =       -69.4218  VDWAALS    =      1895.4046
 EELEC  =    -14742.7321  EHBOND  =         0.0000  RESTRAINT  =         0.0000
 EKCMT  =         0.0000  VIRIAL  =         0.0000  VOLUME     =     41277.1507
                                                    Density    =         0.9885
 DV/DL  =        -1.5904
 ------------------------------------------------------------------------------

      R M S  F L U C T U A T I O N S

 NSTEP =   500000   TIME(PS) =    1020.000  TEMP(K) =     4.79  PRESS =     0.0
 Etot   =        70.5249  EKtot   =        39.0412  EPtot      =        58.1687
 BOND   =         3.8668  ANGLE   =         3.3545  DIHED      =         2.8008
 1-4 NB =         0.9080  1-4 EEL =         1.9985  VDWAALS    =        58.5155
 EELEC  =        95.2976  EHBOND  =         0.0000  RESTRAINT  =         0.0000
 EKCMT  =         0.0000  VIRIAL  =         0.0000  VOLUME     =       336.9351
                                                    Density    =         0.0081
 DV/DL  =         0.5022
 ------------------------------------------------------------------------------

      A V E R A G E S   O V E R   50000 S T E P S

 NSTEP =   500000   TIME(PS) =    1020.000  TEMP(K) =   297.33  PRESS =     0.0
 Etot   =    -10413.6664  EKtot   =      2423.9499  EPtot      =    -12837.6163
 BOND   =        18.6003  ANGLE   =        32.9016  DIHED      =        19.6123
 1-4 NB =         8.0188  1-4 EEL =       -69.4218  VDWAALS    =      1895.4046
 EELEC  =    -14742.7321  EHBOND  =         0.0000  RESTRAINT  =         0.0000
 EKCMT  =         0.0000  VIRIAL  =         0.0000  VOLUME     =     41277.1507
                                                    Density    =         0.9885
 DV/DL  =        -1.5904
 ------------------------------------------------------------------------------

      R M S  F L U C T U A T I O N S

 NSTEP =   500000   TIME(PS) =    1020.000  TEMP(K) =     4.79  PRESS =     0.0
 Etot   =        70.5249  EKtot   =        39.0412  EPtot      =        58.1687
 BOND   =         3.8668  ANGLE   =         3.3545  DIHED      =         2.8008
 1-4 NB =         0.9080  1-4 EEL =         1.9985  VDWAALS    =        58.5155
 EELEC  =        95.2976  EHBOND  =         0.0000  RESTRAINT  =         0.0000
 EKCMT  =         0.0000  VIRIAL  =         0.0000  VOLUME     =       336.9351
                                                    Density    =         0.0081
 DV/DL  =         0.5022
 ------------------------------------------------------------------------------

      DV/DL, AVERAGES OVER   50000 STEPS

 NSTEP =   500000   TIME(PS) =    1020.000  TEMP(K) =     4.79  PRESS =     0.0
 Etot   =         0.0000  EKtot   =         0.0000  EPtot      =        -1.5745
 BOND   =         0.0000  ANGLE   =         0.0000  DIHED      =         0.0000
 1-4 NB =         0.0000  1-4 EEL =         0.0000  VDWAALS    =         0.0000
 EELEC  =        -0.2295  EHBOND  =         0.0000  RESTRAINT  =         0.0000
 EKCMT  =         0.0000  VIRIAL  =         0.0000  VOLUME     =         0.0000
                                                    Density    =         0.0000
 DV/DL  =        -1.5745
 ------------------------------------------------------------------------------

      A V E R A G E S   O V E R  500000 S T E P S

 NSTEP =   500000   TIME(PS) =    1020.000  TEMP(K) =   297.50  PRESS =     0.0
 Etot   =    -10412.0417  EKtot   =      2425.3844  EPtot      =    -12837.4260
 BOND   =        18.2199  ANGLE   =        32.5637  DIHED      =        19.1691
 1-4 NB =         7.9214  1-4 EEL =       -72.0022  VDWAALS    =      1895.7592
 EELEC  =    -14739.0571  EHBOND  =         0.0000  RESTRAINT  =         0.0000
 EKCMT  =         0.0000  VIRIAL  =         0.0000  VOLUME     =     41276.1355
                                                    Density    =         0.9886
 DV/DL  =        -1.6065
 ------------------------------------------------------------------------------

      R M S  F L U C T U A T I O N S

 NSTEP =   500000   TIME(PS) =    1020.000  TEMP(K) =     5.60  PRESS =     0.0
 Etot   =       111.0511  EKtot   =        45.6814  EPtot      =        84.1648
 BOND   =         3.8298  ANGLE   =         3.3084  DIHED      =         2.8171
 1-4 NB =         0.8793  1-4 EEL =         2.6059  VDWAALS    =        63.3076
 EELEC  =       127.3160  EHBOND  =         0.0000  RESTRAINT  =         0.0000
 EKCMT  =         0.0000  VIRIAL  =         0.0000  VOLUME     =       314.3255
                                                    Density    =         0.0075
 DV/DL  =         0.4952
 ------------------------------------------------------------------------------

      A V E R A G E S   O V E R  500000 S T E P S

 NSTEP =   500000   TIME(PS) =    1020.000  TEMP(K) =   297.50  PRESS =     0.0
 Etot   =    -10412.0416  EKtot   =      2425.3844  EPtot      =    -12837.4260
 BOND   =        18.2199  ANGLE   =        32.5637  DIHED      =        19.1691
 1-4 NB =         7.9214  1-4 EEL =       -72.0022  VDWAALS    =      1895.7592
 EELEC  =    -14739.0571  EHBOND  =         0.0000  RESTRAINT  =         0.0000
 EKCMT  =         0.0000  VIRIAL  =         0.0000  VOLUME     =     41276.1355
                                                    Density    =         0.9886
 DV/DL  =        -1.6065
 ------------------------------------------------------------------------------

      R M S  F L U C T U A T I O N S

 NSTEP =   500000   TIME(PS) =    1020.000  TEMP(K) =     5.60  PRESS =     0.0
 Etot   =       111.0511  EKtot   =        45.6814  EPtot      =        84.1648
 BOND   =         3.8298  ANGLE   =         3.3084  DIHED      =         2.8171
 1-4 NB =         0.8793  1-4 EEL =         2.6059  VDWAALS    =        63.3076
 EELEC  =       127.3160  EHBOND  =         0.0000  RESTRAINT  =         0.0000
 EKCMT  =         0.0000  VIRIAL  =         0.0000  VOLUME     =       314.3255
                                                    Density    =         0.0075
 DV/DL  =         0.4952
 ------------------------------------------------------------------------------

      DV/DL, AVERAGES OVER  500000 STEPS

 NSTEP =   500000   TIME(PS) =    1020.000  TEMP(K) =     5.60  PRESS =     0.0
 Etot   =         0.0000  EKtot   =         0.0000  EPtot      =        -1.5905
 BOND   =         0.0000  ANGLE   =         0.0000  DIHED      =         0.0000
 1-4 NB =         0.0000  1-4 EEL =         0.0000  VDWAALS    =         0.0000
 EELEC  =        -0.2295  EHBOND  =         0.0000  RESTRAINT  =         0.0000
 EKCMT  =         0.0000  VIRIAL  =         0.0000  VOLUME     =         0.0000
                                                    Density    =         0.0000
 DV/DL  =        -1.5905
 ------------------------------------------------------------------------------
