-------------------------------------------------------
          Amber 16 PMEMD                              2016
          -------------------------------------------------------

  [-O]verwriting output

File Assignments:

 Here is the input file:

TI/FEP, NpT, vdW+bonded transformation
 &cntrl
 ! please adjust namelist parameters to your needs!

 ! parameters for general MD
 imin = 0, nstlim = 500000, irest = 1, ntx = 5, dt = 0.002,
 ntt = 3, temp0 = 298.0, gamma_ln = 2.0, ig = -1,
 ntb = 2,
 ntp = 1, barostat = 2, pres0 = 1.01325, taup = 2.0,
 ntwe = 1000, ntwx = 10000, ntpr = 1000, ntwr = 50000, ntave = 50000,
 ioutfm = 1, iwrap = 1, ntxo = 2,

 ! parameters for alchemical free energy simulation
 ntc = 2, ntf = 1,
 noshakemask = ':1,2',

 icfe = 1, ifsc = 1, clambda = 0.79366, scalpha = 0.5, scbeta = 12.0,
 ifmbar = 0, bar_intervall = 500, bar_l_min = 0.0, bar_l_max = 1.0,
 bar_l_incr = 0.1,   ! ntpr = bar_intervall for alchemical analysis tool

 timask1=':1', timask2=':2',
scmask1='',
scmask2=':2@C28,O29,C30,H50,H51,H52,H53',
 crgmask = '',
 /
 &ewald
 /

Note: ig = -1. Setting random seed to   227596 based on wallclock time in
      microseconds.

--------------------------------------------------------------------------------
   1.  RESOURCE   USE:
--------------------------------------------------------------------------------

 getting box info from netcdf restart file
 NATOM  =    5979 NTYPES =      16 NBONH =    5922 MBONA  =      59
 NTHETH =      86 MTHETA =      80 NPHIH =     132 MPHIA  =     124
 NHPARM =       0 NPARM  =       0 NNB   =    8319 NRES   =    1962
 NBONA  =      59 NTHETA =      80 NPHIA =     124 NUMBND =      21
 NUMANG =      31 NPTRA  =      21 NATYP =      17 NPHB   =       1
 IFBOX  =       1 NMXRS  =      53 IFCAP =       0 NEXTRA =       0
 NCOPY  =       0

     BOX TYPE: RECTILINEAR

--------------------------------------------------------------------------------
   2.  CONTROL  DATA  FOR  THE  RUN
--------------------------------------------------------------------------------

L0

General flags:
     imin    =       0, nmropt  =       0

Nature and format of input:
     ntx     =       5, irest   =       1, ntrx    =       1

Nature and format of output:
     ntxo    =       2, ntpr    =    1000, ntrx    =       1, ntwr    =   50000
     iwrap   =       1, ntwx    =   10000, ntwv    =       0, ntwe    =    1000
     ioutfm  =       1, ntwprt  =       0, idecomp =       0, rbornstat=      0

Potential function:
     ntf     =       1, ntb     =       2, igb     =       0, nsnb    =      25
     ipol    =       0, gbsa    =       0, iesp    =       0
     dielc   =   1.00000, cut     =   8.00000, intdiel =   1.00000

Frozen or restrained atoms:
     ibelly  =       0, ntr     =       0

Molecular dynamics:
     nstlim  =    500000, nscm    =      1000, nrespa  =         1
     t       =   0.00000, dt      =   0.00200, vlimit  =  -1.00000

Langevin dynamics temperature regulation:
     ig      =  227596
     temp0   = 298.00000, tempi   =   0.00000, gamma_ln=   2.00000

Pressure regulation:
     ntp     =       1
     pres0   =   1.01325, comp    =  44.60000, taup    =   2.00000
     Monte-Carlo Barostat:
     mcbarint  =     100

SHAKE:
     ntc     =       2, jfastw  =       0
     tol     =   0.00001

Free energy options:
     icfe    =       1, ifsc    =       1, klambda =       1
     clambda =  0.7937, scalpha =  0.5000, scbeta  = 12.0000
     sceeorder =       2
     dynlmb =  0.0000 logdvdl =       0

Ewald parameters:
     verbose =       0, ew_type =       0, nbflag  =       1, use_pme =       1
     vdwmeth =       1, eedmeth =       1, netfrc  =       1
     Box X =   40.877   Box Y =   43.011   Box Z =   34.124
     Alpha =   90.000   Beta  =   90.000   Gamma =   90.000
     NFFT1 =   48       NFFT2 =   48       NFFT3 =   36
     Cutoff=    8.000   Tol   =0.100E-04
     Ewald Coefficient =  0.34864
     Interpolation order =    4
     TI Mask 1 :1; matches     46 atoms
     TI Mask 2 :2; matches     53 atoms
     TI region 1:    5926 atoms
     TI region 2:    5933 atoms
     SC Mask 2 :2@C28,O29,C30,H50,H51,H52,H53; matches      7 atoms
 Noshake mask :1,2; matches      99 atoms.

--------------------------------------------------------------------------------
   3.  ATOMIC COORDINATES AND VELOCITIES
--------------------------------------------------------------------------------

L0
 begin time read from input coords =    20.000 ps

     Molecule     1 is partially softcore
     Molecule     2 is partially softcore
 Number of triangulated 3-point waters found:     1960
   Removing shake constraints from C27   L0    1 -- H44   L0    1
   Removing shake constraints from C27   L0    1 -- H45   L0    1
   Removing shake constraints from C27   L0    1 -- H46   L0    1
   Removing shake constraints from C25   L0    1 -- H43   L0    1
   Removing shake constraints from C21   L0    1 -- H42   L0    1
   Removing shake constraints from C20   L0    1 -- H39   L0    1
   Removing shake constraints from C20   L0    1 -- H40   L0    1
   Removing shake constraints from C20   L0    1 -- H41   L0    1
   Removing shake constraints from C16   L0    1 -- H37   L0    1
   Removing shake constraints from C16   L0    1 -- H38   L0    1
   Removing shake constraints from N13   L0    1 -- H36   L0    1
   Removing shake constraints from N9    L0    1 -- H35   L0    1
   Removing shake constraints from N9    L0    1 -- H34   L0    1
   Removing shake constraints from C7    L0    1 -- H33   L0    1
   Removing shake constraints from C2    L0    1 -- H31   L0    1
   Removing shake constraints from C2    L0    1 -- H32   L0    1
   Removing shake constraints from C1    L0    1 -- H28   L0    1
   Removing shake constraints from C1    L0    1 -- H29   L0    1
   Removing shake constraints from C1    L0    1 -- H30   L0    1
   Removing shake constraints from C30   INT   2 -- H52   INT   2
   Removing shake constraints from C30   INT   2 -- H53   INT   2
   Removing shake constraints from C30   INT   2 -- H51   INT   2
   Removing shake constraints from C26   INT   2 -- H47   INT   2
   Removing shake constraints from C26   INT   2 -- H48   INT   2
   Removing shake constraints from C26   INT   2 -- H49   INT   2
   Removing shake constraints from C24   INT   2 -- H46   INT   2
   Removing shake constraints from N27   INT   2 -- H50   INT   2
   Removing shake constraints from C21   INT   2 -- H45   INT   2
   Removing shake constraints from C20   INT   2 -- H42   INT   2
   Removing shake constraints from C20   INT   2 -- H43   INT   2
   Removing shake constraints from C20   INT   2 -- H44   INT   2
   Removing shake constraints from C16   INT   2 -- H40   INT   2
   Removing shake constraints from C16   INT   2 -- H41   INT   2
   Removing shake constraints from N13   INT   2 -- H39   INT   2
   Removing shake constraints from N9    INT   2 -- H38   INT   2
   Removing shake constraints from N9    INT   2 -- H37   INT   2
   Removing shake constraints from C7    INT   2 -- H36   INT   2
   Removing shake constraints from C2    INT   2 -- H34   INT   2
   Removing shake constraints from C2    INT   2 -- H35   INT   2
   Removing shake constraints from C1    INT   2 -- H31   INT   2
   Removing shake constraints from C1    INT   2 -- H32   INT   2
   Removing shake constraints from C1    INT   2 -- H33   INT   2
 WARNING: SHAKEn bond for atoms       69       96 is partially softcore.
 Coordinates for common atoms will be synchronized from V0.
 Consider using noshake mask or disabling SHAKE.

 Number of shake restraints removed in TI region  1 :       19
 Number of shake restraints removed in TI region  2 :       23

     Sum of charges for TI region  1 =   0.00001100
     Forcing neutrality...

     Sum of charges for TI region  2 =   0.00001100
     Forcing neutrality...

--------------------------------------------------------------------------------
   4.  RESULTS
 NSTEP =     1000   TIME(PS) =      22.000  TEMP(K) =   281.47  PRESS =     0.0
 Etot   =    -16338.7797  EKtot   =      3322.1816  EPtot      =    -19660.9614
 BOND   =        23.9364  ANGLE   =        17.1212  DIHED      =        20.8204
 1-4 NB =        14.8965  1-4 EEL =      -639.2395  VDWAALS    =      3109.0882
 EELEC  =    -22207.5847  EHBOND  =         0.0000  RESTRAINT  =         0.0000
 EKCMT  =         0.0000  VIRIAL  =         0.0000  VOLUME     =     60420.7458
                                                    Density    =         0.9824
 DV/DL  =       -28.1016
 ------------------------------------------------------------------------------

      A V E R A G E S   O V E R   50000 S T E P S

 NSTEP =    50000   TIME(PS) =     120.000  TEMP(K) =   297.28  PRESS =     0.0
 Etot   =    -15554.8635  EKtot   =      3508.7202  EPtot      =    -19063.5838
 BOND   =        25.8959  ANGLE   =        20.6540  DIHED      =        17.4560
 1-4 NB =        15.0572  1-4 EEL =      -640.0440  VDWAALS    =      2802.6428
 EELEC  =    -21305.2457  EHBOND  =         0.0000  RESTRAINT  =         0.0000
 EKCMT  =         0.0000  VIRIAL  =         0.0000  VOLUME     =     60132.6885
                                                    Density    =         0.9872
 DV/DL  =       -26.7570
 ------------------------------------------------------------------------------

      R M S  F L U C T U A T I O N S

 NSTEP =    50000   TIME(PS) =     120.000  TEMP(K) =    10.27  PRESS =     0.0
 Etot   =       401.3888  EKtot   =       121.1632  EPtot      =       289.9401
 BOND   =         3.9485  ANGLE   =         3.8225  DIHED      =         3.4756
 1-4 NB =         1.4387  1-4 EEL =         4.2690  VDWAALS    =       139.8207
 EELEC  =       416.3433  EHBOND  =         0.0000  RESTRAINT  =         0.0000
 EKCMT  =         0.0000  VIRIAL  =         0.0000  VOLUME     =       356.7835
                                                    Density    =         0.0059
 DV/DL  =         8.0017
 ------------------------------------------------------------------------------

      A V E R A G E S   O V E R   50000 S T E P S

 NSTEP =    50000   TIME(PS) =     120.000  TEMP(K) =   297.24  PRESS =     0.0
 Etot   =    -15549.1295  EKtot   =      3514.4542  EPtot      =    -19063.5838
 BOND   =        25.8959  ANGLE   =        20.6540  DIHED      =        17.4560
 1-4 NB =        15.0572  1-4 EEL =      -640.0440  VDWAALS    =      2802.6428
 EELEC  =    -21305.2457  EHBOND  =         0.0000  RESTRAINT  =         0.0000
 EKCMT  =         0.0000  VIRIAL  =         0.0000  VOLUME     =     60132.6885
                                                    Density    =         0.9884
 DV/DL  =       -26.7570
 ------------------------------------------------------------------------------

      R M S  F L U C T U A T I O N S

 NSTEP =    50000   TIME(PS) =     120.000  TEMP(K) =    10.27  PRESS =     0.0
 Etot   =       401.6562  EKtot   =       121.4001  EPtot      =       289.9401
 BOND   =         3.9485  ANGLE   =         3.8225  DIHED      =         3.4756
 1-4 NB =         1.4387  1-4 EEL =         4.2690  VDWAALS    =       139.8207
 EELEC  =       416.3433  EHBOND  =         0.0000  RESTRAINT  =         0.0000
 EKCMT  =         0.0000  VIRIAL  =         0.0000  VOLUME     =       356.7835
                                                    Density    =         0.0059
 DV/DL  =         8.0017
 ------------------------------------------------------------------------------

      DV/DL, AVERAGES OVER   50000 STEPS

 NSTEP =    50000   TIME(PS) =     120.000  TEMP(K) =    10.27  PRESS =     0.0
 Etot   =         0.0000  EKtot   =         0.0000  EPtot      =       -26.4869
 BOND   =         0.0000  ANGLE   =         0.0000  DIHED      =         0.0000
 1-4 NB =         0.0000  1-4 EEL =         0.0000  VDWAALS    =        -0.3354
 EELEC  =         0.0000  EHBOND  =         0.0000  RESTRAINT  =         0.0000
 EKCMT  =         0.0000  VIRIAL  =         0.0000  VOLUME     =         0.0000
                                                    Density    =         0.0000
 DV/DL  =       -26.4869
 ------------------------------------------------------------------------------

      A V E R A G E S   O V E R   50000 S T E P S

 NSTEP =   100000   TIME(PS) =     220.000  TEMP(K) =   298.93  PRESS =     0.0
 Etot   =    -15480.5483  EKtot   =      3528.2800  EPtot      =    -19008.8283
 BOND   =        25.6631  ANGLE   =        19.8319  DIHED      =        17.5850
 1-4 NB =        15.1825  1-4 EEL =      -640.3663  VDWAALS    =      2783.3083
 EELEC  =    -21230.0328  EHBOND  =         0.0000  RESTRAINT  =         0.0000
 EKCMT  =         0.0000  VIRIAL  =         0.0000  VOLUME     =     60144.9765
                                                    Density    =         0.9870
 DV/DL  =       -26.0060
 ------------------------------------------------------------------------------

      R M S  F L U C T U A T I O N S

 NSTEP =   100000   TIME(PS) =     220.000  TEMP(K) =     3.96  PRESS =     0.0
 Etot   =        76.1980  EKtot   =        46.7068  EPtot      =        62.7149
 BOND   =         3.7133  ANGLE   =         3.4391  DIHED      =         3.4050
 1-4 NB =         1.4523  1-4 EEL =         4.3601  VDWAALS    =        70.9296
 EELEC  =       106.6195  EHBOND  =         0.0000  RESTRAINT  =         0.0000
 EKCMT  =         0.0000  VIRIAL  =         0.0000  VOLUME     =       343.2227
                                                    Density    =         0.0056
 DV/DL  =         7.8564
 ------------------------------------------------------------------------------

      A V E R A G E S   O V E R   50000 S T E P S

 NSTEP =   100000   TIME(PS) =     220.000  TEMP(K) =   298.87  PRESS =     0.0
 Etot   =    -15475.0733  EKtot   =      3533.7550  EPtot      =    -19008.8283
 BOND   =        25.6631  ANGLE   =        19.8319  DIHED      =        17.5850
 1-4 NB =        15.1825  1-4 EEL =      -640.3663  VDWAALS    =      2783.3083
 EELEC  =    -21230.0328  EHBOND  =         0.0000  RESTRAINT  =         0.0000
 EKCMT  =         0.0000  VIRIAL  =         0.0000  VOLUME     =     60144.9765
                                                    Density    =         0.9882
 DV/DL  =       -26.0060
 ------------------------------------------------------------------------------

      R M S  F L U C T U A T I O N S

 NSTEP =   100000   TIME(PS) =     220.000  TEMP(K) =     3.96  PRESS =     0.0
 Etot   =        76.2700  EKtot   =        46.7716  EPtot      =        62.7149
 BOND   =         3.7133  ANGLE   =         3.4391  DIHED      =         3.4050
 1-4 NB =         1.4523  1-4 EEL =         4.3601  VDWAALS    =        70.9296
 EELEC  =       106.6195  EHBOND  =         0.0000  RESTRAINT  =         0.0000
 EKCMT  =         0.0000  VIRIAL  =         0.0000  VOLUME     =       343.2227
                                                    Density    =         0.0056
 DV/DL  =         7.8564
 ------------------------------------------------------------------------------

      DV/DL, AVERAGES OVER   50000 STEPS

 NSTEP =   100000   TIME(PS) =     220.000  TEMP(K) =     3.96  PRESS =     0.0
 Etot   =         0.0000  EKtot   =         0.0000  EPtot      =       -25.7466
 BOND   =         0.0000  ANGLE   =         0.0000  DIHED      =         0.0000
 1-4 NB =         0.0000  1-4 EEL =         0.0000  VDWAALS    =        -0.3354
 EELEC  =         0.0000  EHBOND  =         0.0000  RESTRAINT  =         0.0000
 EKCMT  =         0.0000  VIRIAL  =         0.0000  VOLUME     =         0.0000
                                                    Density    =         0.0000
 DV/DL  =       -25.7466
 ------------------------------------------------------------------------------

      A V E R A G E S   O V E R   50000 S T E P S

 NSTEP =   500000   TIME(PS) =    1020.000  TEMP(K) =   298.63  PRESS =     0.0
 Etot   =    -15495.9935  EKtot   =      3524.6976  EPtot      =    -19020.6911
 BOND   =        25.4519  ANGLE   =        20.3139  DIHED      =        17.2165
 1-4 NB =        15.0001  1-4 EEL =      -639.7614  VDWAALS    =      2781.1049
 EELEC  =    -21240.0169  EHBOND  =         0.0000  RESTRAINT  =         0.0000
 EKCMT  =         0.0000  VIRIAL  =         0.0000  VOLUME     =     60031.9231
                                                    Density    =         0.9888
 DV/DL  =       -26.2129
 ------------------------------------------------------------------------------

      R M S  F L U C T U A T I O N S

 NSTEP =   500000   TIME(PS) =    1020.000  TEMP(K) =     3.79  PRESS =     0.0
 Etot   =        77.3828  EKtot   =        44.7088  EPtot      =        65.5503
 BOND   =         3.7538  ANGLE   =         3.7199  DIHED      =         3.3328
 1-4 NB =         1.4678  1-4 EEL =         4.3423  VDWAALS    =        67.5134
 EELEC  =       106.4628  EHBOND  =         0.0000  RESTRAINT  =         0.0000
 EKCMT  =         0.0000  VIRIAL  =         0.0000  VOLUME     =       335.3451
                                                    Density    =         0.0055
 DV/DL  =         7.8215
 ------------------------------------------------------------------------------

      A V E R A G E S   O V E R   50000 S T E P S

 NSTEP =   500000   TIME(PS) =    1020.000  TEMP(K) =   298.57  PRESS =     0.0
 Etot   =    -15490.4663  EKtot   =      3530.2248  EPtot      =    -19020.6911
 BOND   =        25.4519  ANGLE   =        20.3139  DIHED      =        17.2165
 1-4 NB =        15.0001  1-4 EEL =      -639.7614  VDWAALS    =      2781.1049
 EELEC  =    -21240.0169  EHBOND  =         0.0000  RESTRAINT  =         0.0000
 EKCMT  =         0.0000  VIRIAL  =         0.0000  VOLUME     =     60031.9231
                                                    Density    =         0.9901
 DV/DL  =       -26.2129
 ------------------------------------------------------------------------------

      R M S  F L U C T U A T I O N S

 NSTEP =   500000   TIME(PS) =    1020.000  TEMP(K) =     3.79  PRESS =     0.0
 Etot   =        77.4139  EKtot   =        44.7568  EPtot      =        65.5503
 BOND   =         3.7538  ANGLE   =         3.7199  DIHED      =         3.3328
 1-4 NB =         1.4678  1-4 EEL =         4.3423  VDWAALS    =        67.5134
 EELEC  =       106.4628  EHBOND  =         0.0000  RESTRAINT  =         0.0000
 EKCMT  =         0.0000  VIRIAL  =         0.0000  VOLUME     =       335.3451
                                                    Density    =         0.0055
 DV/DL  =         7.8215
 ------------------------------------------------------------------------------

      DV/DL, AVERAGES OVER   50000 STEPS

 NSTEP =   500000   TIME(PS) =    1020.000  TEMP(K) =     3.79  PRESS =     0.0
 Etot   =         0.0000  EKtot   =         0.0000  EPtot      =       -25.9509
 BOND   =         0.0000  ANGLE   =         0.0000  DIHED      =         0.0000
 1-4 NB =         0.0000  1-4 EEL =         0.0000  VDWAALS    =        -0.3360
 EELEC  =         0.0000  EHBOND  =         0.0000  RESTRAINT  =         0.0000
 EKCMT  =         0.0000  VIRIAL  =         0.0000  VOLUME     =         0.0000
                                                    Density    =         0.0000
 DV/DL  =       -25.9509
 ------------------------------------------------------------------------------

      A V E R A G E S   O V E R  500000 S T E P S

 NSTEP =   500000   TIME(PS) =    1020.000  TEMP(K) =   298.42  PRESS =     0.0
 Etot   =    -15501.7878  EKtot   =      3522.1828  EPtot      =    -19023.9706
 BOND   =        25.8474  ANGLE   =        20.1560  DIHED      =        17.5342
 1-4 NB =        15.0934  1-4 EEL =      -640.2359  VDWAALS    =      2783.8179
 EELEC  =    -21246.1836  EHBOND  =         0.0000  RESTRAINT  =         0.0000
 EKCMT  =         0.0000  VIRIAL  =         0.0000  VOLUME     =     60085.0101
                                                    Density    =         0.9880
 DV/DL  =       -26.1804
 ------------------------------------------------------------------------------

      R M S  F L U C T U A T I O N S

 NSTEP =   500000   TIME(PS) =    1020.000  TEMP(K) =     4.93  PRESS =     0.0
 Etot   =       148.8027  EKtot   =        58.1680  EPtot      =       111.6314
 BOND   =         3.8456  ANGLE   =         3.5911  DIHED      =         3.4516
 1-4 NB =         1.4489  1-4 EEL =         4.2930  VDWAALS    =        79.3329
 EELEC  =       167.7892  EHBOND  =         0.0000  RESTRAINT  =         0.0000
 EKCMT  =         0.0000  VIRIAL  =         0.0000  VOLUME     =       362.5371
                                                    Density    =         0.0060
 DV/DL  =         7.9991
 ------------------------------------------------------------------------------

      A V E R A G E S   O V E R  500000 S T E P S

 NSTEP =   500000   TIME(PS) =    1020.000  TEMP(K) =   298.36  PRESS =     0.0
 Etot   =    -15496.2432  EKtot   =      3527.7274  EPtot      =    -19023.9706
 BOND   =        25.8474  ANGLE   =        20.1560  DIHED      =        17.5342
 1-4 NB =        15.0934  1-4 EEL =      -640.2359  VDWAALS    =      2783.8179
 EELEC  =    -21246.1836  EHBOND  =         0.0000  RESTRAINT  =         0.0000
 EKCMT  =         0.0000  VIRIAL  =         0.0000  VOLUME     =     60085.0101
                                                    Density    =         0.9892
 DV/DL  =       -26.1804
 ------------------------------------------------------------------------------

      R M S  F L U C T U A T I O N S

 NSTEP =   500000   TIME(PS) =    1020.000  TEMP(K) =     4.92  PRESS =     0.0
 Etot   =       148.8778  EKtot   =        58.2307  EPtot      =       111.6314
 BOND   =         3.8456  ANGLE   =         3.5911  DIHED      =         3.4516
 1-4 NB =         1.4489  1-4 EEL =         4.2930  VDWAALS    =        79.3329
 EELEC  =       167.7892  EHBOND  =         0.0000  RESTRAINT  =         0.0000
 EKCMT  =         0.0000  VIRIAL  =         0.0000  VOLUME     =       362.5371
                                                    Density    =         0.0060
 DV/DL  =         7.9991
 ------------------------------------------------------------------------------

      DV/DL, AVERAGES OVER  500000 STEPS

 NSTEP =   500000   TIME(PS) =    1020.000  TEMP(K) =     4.92  PRESS =     0.0
 Etot   =         0.0000  EKtot   =         0.0000  EPtot      =       -25.9184
 BOND   =         0.0000  ANGLE   =         0.0000  DIHED      =         0.0000
 1-4 NB =         0.0000  1-4 EEL =         0.0000  VDWAALS    =        -0.3357
 EELEC  =         0.0000  EHBOND  =         0.0000  RESTRAINT  =         0.0000
 EKCMT  =         0.0000  VIRIAL  =         0.0000  VOLUME     =         0.0000
                                                    Density    =         0.0000
 DV/DL  =       -25.9184
 ------------------------------------------------------------------------------
