-------------------------------------------------------
          Amber 16 PMEMD                              2016
          -------------------------------------------------------

  [-O]verwriting output

File Assignments:

 Here is the input file:

TI/FEP, NpT, decharge transformation
 &cntrl
 ! please adjust namelist parameters to your needs!

 ! parameters for general MD
 imin = 0, nstlim = 500000, irest = 1, ntx = 5, dt = 0.002,
 ntt = 3, temp0 = 298.0, gamma_ln = 2.0, ig = -1,
 ntb = 2,
 ntp = 1, barostat = 2, pres0 = 1.01325, taup = 2.0,
 ntwe = 100, ntwx = 10000, ntpr = 1000, ntwr = 50000, ntave = 50000,
 ioutfm = 1, iwrap = 1, ntxo = 2,

 ! parameters for alchemical free energy simulation
 ntc = 2, ntf = 1,
 noshakemask = ':1,2',

 icfe = 1, ifsc = 0, clambda = 1.00, scalpha = 0.5, scbeta = 12.0,
 ifmbar = 1, mbar_lambda = 0.00 0.25 0.50 0.75 1.00,
 mbar_states = 5, bar_intervall = 1000,   ! ntpr = bar_intervall for alchemical

 timask1=':1', timask2=':2',
scmask1='',
scmask2='',
 crgmask = ':2@H34',
 /
 &ewald
 /

Note: ig = -1. Setting random seed to   712105 based on wallclock time in
      microseconds.

--------------------------------------------------------------------------------
   1.  RESOURCE   USE:
--------------------------------------------------------------------------------

 getting box info from netcdf restart file
 NATOM  =    4115 NTYPES =      13 NBONH =    4067 MBONA  =      54
 NTHETH =      80 MTHETA =      82 NPHIH =     156 MPHIA  =     130
 NHPARM =       0 NPARM  =       0 NNB   =    5842 NRES   =    1345
 NBONA  =      54 NTHETA =      82 NPHIA =     130 NUMBND =      22
 NUMANG =      35 NPTRA  =      14 NATYP =      17 NPHB   =       1
 IFBOX  =       1 NMXRS  =      43 IFCAP =       0 NEXTRA =       0
 NCOPY  =       0

     BOX TYPE: RECTILINEAR

--------------------------------------------------------------------------------
   2.  CONTROL  DATA  FOR  THE  RUN
--------------------------------------------------------------------------------

L0

General flags:
     imin    =       0, nmropt  =       0

Nature and format of input:
     ntx     =       5, irest   =       1, ntrx    =       1

Nature and format of output:
     ntxo    =       2, ntpr    =    1000, ntrx    =       1, ntwr    =   50000
     iwrap   =       1, ntwx    =   10000, ntwv    =       0, ntwe    =     100
     ioutfm  =       1, ntwprt  =       0, idecomp =       0, rbornstat=      0

Potential function:
     ntf     =       1, ntb     =       2, igb     =       0, nsnb    =      25
     ipol    =       0, gbsa    =       0, iesp    =       0
     dielc   =   1.00000, cut     =   8.00000, intdiel =   1.00000

Frozen or restrained atoms:
     ibelly  =       0, ntr     =       0

Molecular dynamics:
     nstlim  =    500000, nscm    =      1000, nrespa  =         1
     t       =   0.00000, dt      =   0.00200, vlimit  =  -1.00000

Langevin dynamics temperature regulation:
     ig      =  712105
     temp0   = 298.00000, tempi   =   0.00000, gamma_ln=   2.00000

Pressure regulation:
     ntp     =       1
     pres0   =   1.01325, comp    =  44.60000, taup    =   2.00000
     Monte-Carlo Barostat:
     mcbarint  =     100

SHAKE:
     ntc     =       2, jfastw  =       0
     tol     =   0.00001

Free energy options:
     icfe    =       1, ifsc    =       0, klambda =       1
     clambda =  1.0000, scalpha =  0.5000, scbeta  = 12.0000
     sceeorder =       2
     dynlmb =  0.0000 logdvdl =       0

FEP MBAR options:
     ifmbar  =       1,  bar_intervall =     1000
     mbar_states =       5

Ewald parameters:
     verbose =       0, ew_type =       0, nbflag  =       1, use_pme =       1
     vdwmeth =       1, eedmeth =       1, netfrc  =       1
     Box X =   32.703   Box Y =   37.439   Box Z =   33.758
     Alpha =   90.000   Beta  =   90.000   Gamma =   90.000
     NFFT1 =   36       NFFT2 =   40       NFFT3 =   36
     Cutoff=    8.000   Tol   =0.100E-04
     Ewald Coefficient =  0.34864
     Interpolation order =    4
     TI Mask 1 :1; matches     43 atoms
     TI Mask 2 :2; matches     43 atoms
     TI region 1:    4072 atoms
     TI region 2:    4072 atoms
Removing charge of       0.1510 from atom      86
Total charge of   0.15104700 removed from       1 atoms

    MBAR - lambda values considered:
       5 total:  0.0000 0.2500 0.5000 0.7500 1.0000
    Extra energies will be computed    500 times.
     Checking for mismatched coordinates.
 Noshake mask :1,2; matches      86 atoms.

--------------------------------------------------------------------------------
   3.  ATOMIC COORDINATES AND VELOCITIES
--------------------------------------------------------------------------------

L0
 begin time read from input coords =    20.000 ps

 Number of triangulated 3-point waters found:     1343
   Removing shake constraints from C22   L0    1 -- H41   L0    1
   Removing shake constraints from C22   L0    1 -- H42   L0    1
   Removing shake constraints from C21   L0    1 -- H39   L0    1
   Removing shake constraints from C21   L0    1 -- H40   L0    1
   Removing shake constraints from C20   L0    1 -- H38   L0    1
   Removing shake constraints from C19   L0    1 -- H37   L0    1
   Removing shake constraints from C18   L0    1 -- H36   L0    1
   Removing shake constraints from C15   L0    1 -- H35   L0    1
   Removing shake constraints from C14   L0    1 -- H34   L0    1
   Removing shake constraints from C13   L0    1 -- H33   L0    1
   Removing shake constraints from C10   L0    1 -- H32   L0    1
   Removing shake constraints from C9    L0    1 -- H31   L0    1
   Removing shake constraints from C8    L0    1 -- H30   L0    1
   Removing shake constraints from N5    L0    1 -- H29   L0    1
   Removing shake constraints from N4    L0    1 -- H43   L0    1
   Removing shake constraints from N4    L0    1 -- H28   L0    1
   Removing shake constraints from C1    L0    1 -- H25   L0    1
   Removing shake constraints from C1    L0    1 -- H26   L0    1
   Removing shake constraints from C1    L0    1 -- H27   L0    1
   Removing shake constraints from C22   L0    2 -- H41   L0    2
   Removing shake constraints from C22   L0    2 -- H42   L0    2
   Removing shake constraints from C21   L0    2 -- H39   L0    2
   Removing shake constraints from C21   L0    2 -- H40   L0    2
   Removing shake constraints from C20   L0    2 -- H38   L0    2
   Removing shake constraints from C19   L0    2 -- H37   L0    2
   Removing shake constraints from C18   L0    2 -- H36   L0    2
   Removing shake constraints from C15   L0    2 -- H35   L0    2
   Removing shake constraints from C14   L0    2 -- H34   L0    2
   Removing shake constraints from C13   L0    2 -- H33   L0    2
   Removing shake constraints from C10   L0    2 -- H32   L0    2
   Removing shake constraints from C9    L0    2 -- H31   L0    2
   Removing shake constraints from C8    L0    2 -- H30   L0    2
   Removing shake constraints from N5    L0    2 -- H29   L0    2
   Removing shake constraints from N4    L0    2 -- H43   L0    2
   Removing shake constraints from N4    L0    2 -- H28   L0    2
   Removing shake constraints from C1    L0    2 -- H25   L0    2
   Removing shake constraints from C1    L0    2 -- H26   L0    2
   Removing shake constraints from C1    L0    2 -- H27   L0    2
 Number of shake restraints removed:       38

     Sum of charges for TI region  1 =   1.00002000
     Assuming uniform neutralizing plasma

     Sum of charges for TI region  2 =   0.84897300
     Assuming uniform neutralizing plasma

--------------------------------------------------------------------------------
   4.  RESULTS
 NSTEP =     1000   TIME(PS) =      22.000  TEMP(K) =   278.56  PRESS =     0.0
 Etot   =    -11117.6257  EKtot   =      2271.2590  EPtot      =    -13388.8847
 BOND   =        18.9167  ANGLE   =        32.3852  DIHED      =        23.3975
 1-4 NB =         8.2782  1-4 EEL =       -65.5045  VDWAALS    =      2131.4710
 EELEC  =    -15537.8290  EHBOND  =         0.0000  RESTRAINT  =         0.0000
 EKCMT  =         0.0000  VIRIAL  =         0.0000  VOLUME     =     41311.6212
                                                    Density    =         0.9863
 DV/DL  =        -9.7240
 ------------------------------------------------------------------------------

      A V E R A G E S   O V E R   50000 S T E P S

 NSTEP =    50000   TIME(PS) =     120.000  TEMP(K) =   295.86  PRESS =     0.0
 Etot   =    -10458.7890  EKtot   =      2412.2608  EPtot      =    -12871.0498
 BOND   =        18.0374  ANGLE   =        32.4749  DIHED      =        19.1734
 1-4 NB =         7.8721  1-4 EEL =       -70.1004  VDWAALS    =      1910.5110
 EELEC  =    -14789.0181  EHBOND  =         0.0000  RESTRAINT  =         0.0000
 EKCMT  =         0.0000  VIRIAL  =         0.0000  VOLUME     =     41330.1415
                                                    Density    =         0.9859
 DV/DL  =        -7.2196
 ------------------------------------------------------------------------------

      R M S  F L U C T U A T I O N S

 NSTEP =    50000   TIME(PS) =     120.000  TEMP(K) =    10.49  PRESS =     0.0
 Etot   =       280.0372  EKtot   =        85.4949  EPtot      =       204.2267
 BOND   =         3.7484  ANGLE   =         3.2752  DIHED      =         2.8229
 1-4 NB =         0.8523  1-4 EEL =         1.9866  VDWAALS    =       103.1386
 EELEC  =       296.0550  EHBOND  =         0.0000  RESTRAINT  =         0.0000
 EKCMT  =         0.0000  VIRIAL  =         0.0000  VOLUME     =       269.4312
                                                    Density    =         0.0064
 DV/DL  =         1.5419
 ------------------------------------------------------------------------------

      A V E R A G E S   O V E R   50000 S T E P S

 NSTEP =    50000   TIME(PS) =     120.000  TEMP(K) =   295.86  PRESS =     0.0
 Etot   =    -10458.7890  EKtot   =      2412.2608  EPtot      =    -12871.0498
 BOND   =        18.0374  ANGLE   =        32.4749  DIHED      =        19.1734
 1-4 NB =         7.8721  1-4 EEL =       -70.1004  VDWAALS    =      1910.5110
 EELEC  =    -14789.0181  EHBOND  =         0.0000  RESTRAINT  =         0.0000
 EKCMT  =         0.0000  VIRIAL  =         0.0000  VOLUME     =     41330.1415
                                                    Density    =         0.9859
 DV/DL  =        -7.2196
 ------------------------------------------------------------------------------

      R M S  F L U C T U A T I O N S

 NSTEP =    50000   TIME(PS) =     120.000  TEMP(K) =    10.49  PRESS =     0.0
 Etot   =       280.0372  EKtot   =        85.4949  EPtot      =       204.2267
 BOND   =         3.7484  ANGLE   =         3.2752  DIHED      =         2.8229
 1-4 NB =         0.8523  1-4 EEL =         1.9866  VDWAALS    =       103.1386
 EELEC  =       296.0550  EHBOND  =         0.0000  RESTRAINT  =         0.0000
 EKCMT  =         0.0000  VIRIAL  =         0.0000  VOLUME     =       269.4312
                                                    Density    =         0.0064
 DV/DL  =         1.5419
 ------------------------------------------------------------------------------

      DV/DL, AVERAGES OVER   50000 STEPS

 NSTEP =    50000   TIME(PS) =     120.000  TEMP(K) =    10.49  PRESS =     0.0
 Etot   =         0.0000  EKtot   =         0.0000  EPtot      =        -7.1473
 BOND   =         0.0000  ANGLE   =         0.0000  DIHED      =         0.0000
 1-4 NB =         0.0000  1-4 EEL =         0.0000  VDWAALS    =         0.0000
 EELEC  =         1.5192  EHBOND  =         0.0000  RESTRAINT  =         0.0000
 EKCMT  =         0.0000  VIRIAL  =         0.0000  VOLUME     =         0.0000
                                                    Density    =         0.0000
 DV/DL  =        -7.1473
 ------------------------------------------------------------------------------

      A V E R A G E S   O V E R   50000 S T E P S

 NSTEP =   100000   TIME(PS) =     220.000  TEMP(K) =   297.02  PRESS =     0.0
 Etot   =    -10435.9944  EKtot   =      2421.7331  EPtot      =    -12857.7275
 BOND   =        18.2061  ANGLE   =        32.7810  DIHED      =        18.7761
 1-4 NB =         7.9609  1-4 EEL =       -67.0280  VDWAALS    =      1905.1031
 EELEC  =    -14773.5267  EHBOND  =         0.0000  RESTRAINT  =         0.0000
 EKCMT  =         0.0000  VIRIAL  =         0.0000  VOLUME     =     41100.6361
                                                    Density    =         0.9914
 DV/DL  =        -7.1872
 ------------------------------------------------------------------------------

      R M S  F L U C T U A T I O N S

 NSTEP =   100000   TIME(PS) =     220.000  TEMP(K) =     4.47  PRESS =     0.0
 Etot   =        68.4902  EKtot   =        36.4235  EPtot      =        59.7110
 BOND   =         3.8235  ANGLE   =         3.2429  DIHED      =         2.7480
 1-4 NB =         0.8731  1-4 EEL =         2.5965  VDWAALS    =        59.4345
 EELEC  =        99.2102  EHBOND  =         0.0000  RESTRAINT  =         0.0000
 EKCMT  =         0.0000  VIRIAL  =         0.0000  VOLUME     =       339.6674
                                                    Density    =         0.0083
 DV/DL  =         1.4740
 ------------------------------------------------------------------------------

      A V E R A G E S   O V E R   50000 S T E P S

 NSTEP =   100000   TIME(PS) =     220.000  TEMP(K) =   297.02  PRESS =     0.0
 Etot   =    -10435.9944  EKtot   =      2421.7331  EPtot      =    -12857.7275
 BOND   =        18.2061  ANGLE   =        32.7810  DIHED      =        18.7761
 1-4 NB =         7.9609  1-4 EEL =       -67.0280  VDWAALS    =      1905.1031
 EELEC  =    -14773.5267  EHBOND  =         0.0000  RESTRAINT  =         0.0000
 EKCMT  =         0.0000  VIRIAL  =         0.0000  VOLUME     =     41100.6361
                                                    Density    =         0.9914
 DV/DL  =        -7.1872
 ------------------------------------------------------------------------------

      R M S  F L U C T U A T I O N S

 NSTEP =   100000   TIME(PS) =     220.000  TEMP(K) =     4.47  PRESS =     0.0
 Etot   =        68.4902  EKtot   =        36.4235  EPtot      =        59.7110
 BOND   =         3.8235  ANGLE   =         3.2429  DIHED      =         2.7480
 1-4 NB =         0.8731  1-4 EEL =         2.5965  VDWAALS    =        59.4345
 EELEC  =        99.2102  EHBOND  =         0.0000  RESTRAINT  =         0.0000
 EKCMT  =         0.0000  VIRIAL  =         0.0000  VOLUME     =       339.6674
                                                    Density    =         0.0083
 DV/DL  =         1.4740
 ------------------------------------------------------------------------------

      DV/DL, AVERAGES OVER   50000 STEPS

 NSTEP =   100000   TIME(PS) =     220.000  TEMP(K) =     4.47  PRESS =     0.0
 Etot   =         0.0000  EKtot   =         0.0000  EPtot      =        -7.1151
 BOND   =         0.0000  ANGLE   =         0.0000  DIHED      =         0.0000
 1-4 NB =         0.0000  1-4 EEL =         0.0000  VDWAALS    =         0.0000
 EELEC  =         1.5193  EHBOND  =         0.0000  RESTRAINT  =         0.0000
 EKCMT  =         0.0000  VIRIAL  =         0.0000  VOLUME     =         0.0000
                                                    Density    =         0.0000
 DV/DL  =        -7.1151
 ------------------------------------------------------------------------------

      A V E R A G E S   O V E R   50000 S T E P S

 NSTEP =   500000   TIME(PS) =    1020.000  TEMP(K) =   297.39  PRESS =     0.0
 Etot   =    -10422.9971  EKtot   =      2424.7341  EPtot      =    -12847.7312
 BOND   =        18.2145  ANGLE   =        32.5343  DIHED      =        18.7897
 1-4 NB =         7.8861  1-4 EEL =       -67.3880  VDWAALS    =      1901.2718
 EELEC  =    -14759.0397  EHBOND  =         0.0000  RESTRAINT  =         0.0000
 EKCMT  =         0.0000  VIRIAL  =         0.0000  VOLUME     =     41193.7775
                                                    Density    =         0.9891
 DV/DL  =        -7.2411
 ------------------------------------------------------------------------------

      R M S  F L U C T U A T I O N S

 NSTEP =   500000   TIME(PS) =    1020.000  TEMP(K) =     4.61  PRESS =     0.0
 Etot   =        66.7292  EKtot   =        37.5825  EPtot      =        55.7027
 BOND   =         3.7134  ANGLE   =         3.2247  DIHED      =         2.7133
 1-4 NB =         0.8527  1-4 EEL =         2.3926  VDWAALS    =        55.5903
 EELEC  =        89.0053  EHBOND  =         0.0000  RESTRAINT  =         0.0000
 EKCMT  =         0.0000  VIRIAL  =         0.0000  VOLUME     =       298.6490
                                                    Density    =         0.0072
 DV/DL  =         1.5016
 ------------------------------------------------------------------------------

      A V E R A G E S   O V E R   50000 S T E P S

 NSTEP =   500000   TIME(PS) =    1020.000  TEMP(K) =   297.39  PRESS =     0.0
 Etot   =    -10422.9971  EKtot   =      2424.7341  EPtot      =    -12847.7312
 BOND   =        18.2145  ANGLE   =        32.5343  DIHED      =        18.7897
 1-4 NB =         7.8861  1-4 EEL =       -67.3880  VDWAALS    =      1901.2718
 EELEC  =    -14759.0397  EHBOND  =         0.0000  RESTRAINT  =         0.0000
 EKCMT  =         0.0000  VIRIAL  =         0.0000  VOLUME     =     41193.7775
                                                    Density    =         0.9891
 DV/DL  =        -7.2411
 ------------------------------------------------------------------------------

      R M S  F L U C T U A T I O N S

 NSTEP =   500000   TIME(PS) =    1020.000  TEMP(K) =     4.61  PRESS =     0.0
 Etot   =        66.7292  EKtot   =        37.5825  EPtot      =        55.7027
 BOND   =         3.7134  ANGLE   =         3.2247  DIHED      =         2.7133
 1-4 NB =         0.8527  1-4 EEL =         2.3926  VDWAALS    =        55.5903
 EELEC  =        89.0053  EHBOND  =         0.0000  RESTRAINT  =         0.0000
 EKCMT  =         0.0000  VIRIAL  =         0.0000  VOLUME     =       298.6490
                                                    Density    =         0.0072
 DV/DL  =         1.5016
 ------------------------------------------------------------------------------

      DV/DL, AVERAGES OVER   50000 STEPS

 NSTEP =   500000   TIME(PS) =    1020.000  TEMP(K) =     4.61  PRESS =     0.0
 Etot   =         0.0000  EKtot   =         0.0000  EPtot      =        -7.1680
 BOND   =         0.0000  ANGLE   =         0.0000  DIHED      =         0.0000
 1-4 NB =         0.0000  1-4 EEL =         0.0000  VDWAALS    =         0.0000
 EELEC  =         1.5193  EHBOND  =         0.0000  RESTRAINT  =         0.0000
 EKCMT  =         0.0000  VIRIAL  =         0.0000  VOLUME     =         0.0000
                                                    Density    =         0.0000
 DV/DL  =        -7.1680
 ------------------------------------------------------------------------------

      A V E R A G E S   O V E R  500000 S T E P S

 NSTEP =   500000   TIME(PS) =    1020.000  TEMP(K) =   297.30  PRESS =     0.0
 Etot   =    -10419.9673  EKtot   =      2424.0026  EPtot      =    -12843.9699
 BOND   =        18.3218  ANGLE   =        32.6273  DIHED      =        19.0939
 1-4 NB =         7.9009  1-4 EEL =       -68.3593  VDWAALS    =      1899.7707
 EELEC  =    -14753.3252  EHBOND  =         0.0000  RESTRAINT  =         0.0000
 EKCMT  =         0.0000  VIRIAL  =         0.0000  VOLUME     =     41232.8584
                                                    Density    =         0.9882
 DV/DL  =        -7.2278
 ------------------------------------------------------------------------------

      R M S  F L U C T U A T I O N S

 NSTEP =   500000   TIME(PS) =    1020.000  TEMP(K) =     5.55  PRESS =     0.0
 Etot   =       111.1650  EKtot   =        45.2578  EPtot      =        85.0879
 BOND   =         3.7915  ANGLE   =         3.2722  DIHED      =         2.7894
 1-4 NB =         0.8740  1-4 EEL =         2.7901  VDWAALS    =        63.1984
 EELEC  =       128.7805  EHBOND  =         0.0000  RESTRAINT  =         0.0000
 EKCMT  =         0.0000  VIRIAL  =         0.0000  VOLUME     =       300.1835
                                                    Density    =         0.0072
 DV/DL  =         1.5255
 ------------------------------------------------------------------------------

      A V E R A G E S   O V E R  500000 S T E P S

 NSTEP =   500000   TIME(PS) =    1020.000  TEMP(K) =   297.30  PRESS =     0.0
 Etot   =    -10419.9673  EKtot   =      2424.0026  EPtot      =    -12843.9699
 BOND   =        18.3218  ANGLE   =        32.6273  DIHED      =        19.0939
 1-4 NB =         7.9009  1-4 EEL =       -68.3593  VDWAALS    =      1899.7707
 EELEC  =    -14753.3252  EHBOND  =         0.0000  RESTRAINT  =         0.0000
 EKCMT  =         0.0000  VIRIAL  =         0.0000  VOLUME     =     41232.8584
                                                    Density    =         0.9882
 DV/DL  =        -7.2278
 ------------------------------------------------------------------------------

      R M S  F L U C T U A T I O N S

 NSTEP =   500000   TIME(PS) =    1020.000  TEMP(K) =     5.55  PRESS =     0.0
 Etot   =       111.1650  EKtot   =        45.2578  EPtot      =        85.0879
 BOND   =         3.7915  ANGLE   =         3.2722  DIHED      =         2.7894
 1-4 NB =         0.8740  1-4 EEL =         2.7901  VDWAALS    =        63.1984
 EELEC  =       128.7805  EHBOND  =         0.0000  RESTRAINT  =         0.0000
 EKCMT  =         0.0000  VIRIAL  =         0.0000  VOLUME     =       300.1835
                                                    Density    =         0.0072
 DV/DL  =         1.5255
 ------------------------------------------------------------------------------

      DV/DL, AVERAGES OVER  500000 STEPS

 NSTEP =   500000   TIME(PS) =    1020.000  TEMP(K) =     5.55  PRESS =     0.0
 Etot   =         0.0000  EKtot   =         0.0000  EPtot      =        -7.1556
 BOND   =         0.0000  ANGLE   =         0.0000  DIHED      =         0.0000
 1-4 NB =         0.0000  1-4 EEL =         0.0000  VDWAALS    =         0.0000
 EELEC  =         1.5192  EHBOND  =         0.0000  RESTRAINT  =         0.0000
 EKCMT  =         0.0000  VIRIAL  =         0.0000  VOLUME     =         0.0000
                                                    Density    =         0.0000
 DV/DL  =        -7.1556
 ------------------------------------------------------------------------------
