-------------------------------------------------------
          Amber 16 PMEMD                              2016
          -------------------------------------------------------

  [-O]verwriting output

File Assignments:

 Here is the input file:

TI/FEP, NpT, decharge transformation
 &cntrl
 ! please adjust namelist parameters to your needs!

 ! parameters for general MD
 imin = 0, nstlim = 500000, irest = 1, ntx = 5, dt = 0.002,
 ntt = 3, temp0 = 298.0, gamma_ln = 2.0, ig = -1,
 ntb = 2,
 ntp = 1, barostat = 2, pres0 = 1.01325, taup = 2.0,
 ntwe = 100, ntwx = 10000, ntpr = 1000, ntwr = 50000, ntave = 50000,
 ioutfm = 1, iwrap = 1, ntxo = 2,

 ! parameters for alchemical free energy simulation
 ntc = 2, ntf = 1,
 noshakemask = ':1,2',

 icfe = 1, ifsc = 0, clambda = 0.25, scalpha = 0.5, scbeta = 12.0,
 ifmbar = 1, mbar_lambda = 0.00 0.25 0.50 0.75 1.00,
 mbar_states = 5, bar_intervall = 1000,   ! ntpr = bar_intervall for alchemical

 timask1=':1', timask2=':2',
scmask1='',
scmask2='',
 crgmask = ':2@H34',
 /
 &ewald
 /

Note: ig = -1. Setting random seed to   572095 based on wallclock time in
      microseconds.

--------------------------------------------------------------------------------
   1.  RESOURCE   USE:
--------------------------------------------------------------------------------

 getting box info from netcdf restart file
 NATOM  =    4115 NTYPES =      13 NBONH =    4067 MBONA  =      54
 NTHETH =      80 MTHETA =      82 NPHIH =     156 MPHIA  =     130
 NHPARM =       0 NPARM  =       0 NNB   =    5842 NRES   =    1345
 NBONA  =      54 NTHETA =      82 NPHIA =     130 NUMBND =      22
 NUMANG =      35 NPTRA  =      14 NATYP =      17 NPHB   =       1
 IFBOX  =       1 NMXRS  =      43 IFCAP =       0 NEXTRA =       0
 NCOPY  =       0

     BOX TYPE: RECTILINEAR

--------------------------------------------------------------------------------
   2.  CONTROL  DATA  FOR  THE  RUN
--------------------------------------------------------------------------------

L0

General flags:
     imin    =       0, nmropt  =       0

Nature and format of input:
     ntx     =       5, irest   =       1, ntrx    =       1

Nature and format of output:
     ntxo    =       2, ntpr    =    1000, ntrx    =       1, ntwr    =   50000
     iwrap   =       1, ntwx    =   10000, ntwv    =       0, ntwe    =     100
     ioutfm  =       1, ntwprt  =       0, idecomp =       0, rbornstat=      0

Potential function:
     ntf     =       1, ntb     =       2, igb     =       0, nsnb    =      25
     ipol    =       0, gbsa    =       0, iesp    =       0
     dielc   =   1.00000, cut     =   8.00000, intdiel =   1.00000

Frozen or restrained atoms:
     ibelly  =       0, ntr     =       0

Molecular dynamics:
     nstlim  =    500000, nscm    =      1000, nrespa  =         1
     t       =   0.00000, dt      =   0.00200, vlimit  =  -1.00000

Langevin dynamics temperature regulation:
     ig      =  572095
     temp0   = 298.00000, tempi   =   0.00000, gamma_ln=   2.00000

Pressure regulation:
     ntp     =       1
     pres0   =   1.01325, comp    =  44.60000, taup    =   2.00000
     Monte-Carlo Barostat:
     mcbarint  =     100

SHAKE:
     ntc     =       2, jfastw  =       0
     tol     =   0.00001

Free energy options:
     icfe    =       1, ifsc    =       0, klambda =       1
     clambda =  0.2500, scalpha =  0.5000, scbeta  = 12.0000
     sceeorder =       2
     dynlmb =  0.0000 logdvdl =       0

FEP MBAR options:
     ifmbar  =       1,  bar_intervall =     1000
     mbar_states =       5

Ewald parameters:
     verbose =       0, ew_type =       0, nbflag  =       1, use_pme =       1
     vdwmeth =       1, eedmeth =       1, netfrc  =       1
     Box X =   32.703   Box Y =   37.439   Box Z =   33.758
     Alpha =   90.000   Beta  =   90.000   Gamma =   90.000
     NFFT1 =   36       NFFT2 =   40       NFFT3 =   36
     Cutoff=    8.000   Tol   =0.100E-04
     Ewald Coefficient =  0.34864
     Interpolation order =    4
     TI Mask 1 :1; matches     43 atoms
     TI Mask 2 :2; matches     43 atoms
     TI region 1:    4072 atoms
     TI region 2:    4072 atoms
Removing charge of       0.1510 from atom      86
Total charge of   0.15104700 removed from       1 atoms

    MBAR - lambda values considered:
       5 total:  0.0000 0.2500 0.5000 0.7500 1.0000
    Extra energies will be computed    500 times.
     Checking for mismatched coordinates.
 Noshake mask :1,2; matches      86 atoms.

--------------------------------------------------------------------------------
   3.  ATOMIC COORDINATES AND VELOCITIES
--------------------------------------------------------------------------------

L0
 begin time read from input coords =    20.000 ps

 Number of triangulated 3-point waters found:     1343
   Removing shake constraints from C22   L0    1 -- H41   L0    1
   Removing shake constraints from C22   L0    1 -- H42   L0    1
   Removing shake constraints from C21   L0    1 -- H39   L0    1
   Removing shake constraints from C21   L0    1 -- H40   L0    1
   Removing shake constraints from C20   L0    1 -- H38   L0    1
   Removing shake constraints from C19   L0    1 -- H37   L0    1
   Removing shake constraints from C18   L0    1 -- H36   L0    1
   Removing shake constraints from C15   L0    1 -- H35   L0    1
   Removing shake constraints from C14   L0    1 -- H34   L0    1
   Removing shake constraints from C13   L0    1 -- H33   L0    1
   Removing shake constraints from C10   L0    1 -- H32   L0    1
   Removing shake constraints from C9    L0    1 -- H31   L0    1
   Removing shake constraints from C8    L0    1 -- H30   L0    1
   Removing shake constraints from N5    L0    1 -- H29   L0    1
   Removing shake constraints from N4    L0    1 -- H43   L0    1
   Removing shake constraints from N4    L0    1 -- H28   L0    1
   Removing shake constraints from C1    L0    1 -- H25   L0    1
   Removing shake constraints from C1    L0    1 -- H26   L0    1
   Removing shake constraints from C1    L0    1 -- H27   L0    1
   Removing shake constraints from C22   L0    2 -- H41   L0    2
   Removing shake constraints from C22   L0    2 -- H42   L0    2
   Removing shake constraints from C21   L0    2 -- H39   L0    2
   Removing shake constraints from C21   L0    2 -- H40   L0    2
   Removing shake constraints from C20   L0    2 -- H38   L0    2
   Removing shake constraints from C19   L0    2 -- H37   L0    2
   Removing shake constraints from C18   L0    2 -- H36   L0    2
   Removing shake constraints from C15   L0    2 -- H35   L0    2
   Removing shake constraints from C14   L0    2 -- H34   L0    2
   Removing shake constraints from C13   L0    2 -- H33   L0    2
   Removing shake constraints from C10   L0    2 -- H32   L0    2
   Removing shake constraints from C9    L0    2 -- H31   L0    2
   Removing shake constraints from C8    L0    2 -- H30   L0    2
   Removing shake constraints from N5    L0    2 -- H29   L0    2
   Removing shake constraints from N4    L0    2 -- H43   L0    2
   Removing shake constraints from N4    L0    2 -- H28   L0    2
   Removing shake constraints from C1    L0    2 -- H25   L0    2
   Removing shake constraints from C1    L0    2 -- H26   L0    2
   Removing shake constraints from C1    L0    2 -- H27   L0    2
 Number of shake restraints removed:       38

     Sum of charges for TI region  1 =   1.00002000
     Assuming uniform neutralizing plasma

     Sum of charges for TI region  2 =   0.84897300
     Assuming uniform neutralizing plasma

--------------------------------------------------------------------------------
   4.  RESULTS
 NSTEP =     1000   TIME(PS) =      22.000  TEMP(K) =   280.75  PRESS =     0.0
 Etot   =    -11011.8884  EKtot   =      2289.1077  EPtot      =    -13300.9960
 BOND   =        16.1407  ANGLE   =        31.0835  DIHED      =        21.5217
 1-4 NB =         7.4584  1-4 EEL =       -60.4010  VDWAALS    =      2145.1456
 EELEC  =    -15461.9450  EHBOND  =         0.0000  RESTRAINT  =         0.0000
 EKCMT  =         0.0000  VIRIAL  =         0.0000  VOLUME     =     41595.0668
                                                    Density    =         0.9795
 DV/DL  =        -3.8995
 ------------------------------------------------------------------------------

      A V E R A G E S   O V E R   50000 S T E P S

 NSTEP =    50000   TIME(PS) =     120.000  TEMP(K) =   296.35  PRESS =     0.0
 Etot   =    -10451.8272  EKtot   =      2416.2441  EPtot      =    -12868.0713
 BOND   =        18.4586  ANGLE   =        32.8446  DIHED      =        19.3643
 1-4 NB =         7.8573  1-4 EEL =       -65.8693  VDWAALS    =      1915.2811
 EELEC  =    -14796.0078  EHBOND  =         0.0000  RESTRAINT  =         0.0000
 EKCMT  =         0.0000  VIRIAL  =         0.0000  VOLUME     =     41281.6002
                                                    Density    =         0.9870
 DV/DL  =        -4.6558
 ------------------------------------------------------------------------------

      R M S  F L U C T U A T I O N S

 NSTEP =    50000   TIME(PS) =     120.000  TEMP(K) =    10.61  PRESS =     0.0
 Etot   =       277.6746  EKtot   =        86.5187  EPtot      =       200.5137
 BOND   =         3.8979  ANGLE   =         3.3387  DIHED      =         2.8434
 1-4 NB =         0.8772  1-4 EEL =         2.6092  VDWAALS    =       100.3566
 EELEC  =       289.2653  EHBOND  =         0.0000  RESTRAINT  =         0.0000
 EKCMT  =         0.0000  VIRIAL  =         0.0000  VOLUME     =       295.0925
                                                    Density    =         0.0071
 DV/DL  =         1.3840
 ------------------------------------------------------------------------------

      A V E R A G E S   O V E R   50000 S T E P S

 NSTEP =    50000   TIME(PS) =     120.000  TEMP(K) =   296.35  PRESS =     0.0
 Etot   =    -10451.8272  EKtot   =      2416.2441  EPtot      =    -12868.0713
 BOND   =        18.4586  ANGLE   =        32.8446  DIHED      =        19.3643
 1-4 NB =         7.8573  1-4 EEL =       -65.8693  VDWAALS    =      1915.2811
 EELEC  =    -14796.0078  EHBOND  =         0.0000  RESTRAINT  =         0.0000
 EKCMT  =         0.0000  VIRIAL  =         0.0000  VOLUME     =     41281.6002
                                                    Density    =         0.9870
 DV/DL  =        -4.6558
 ------------------------------------------------------------------------------

      R M S  F L U C T U A T I O N S

 NSTEP =    50000   TIME(PS) =     120.000  TEMP(K) =    10.61  PRESS =     0.0
 Etot   =       277.6746  EKtot   =        86.5187  EPtot      =       200.5137
 BOND   =         3.8979  ANGLE   =         3.3387  DIHED      =         2.8434
 1-4 NB =         0.8772  1-4 EEL =         2.6092  VDWAALS    =       100.3566
 EELEC  =       289.2653  EHBOND  =         0.0000  RESTRAINT  =         0.0000
 EKCMT  =         0.0000  VIRIAL  =         0.0000  VOLUME     =       295.0925
                                                    Density    =         0.0071
 DV/DL  =         1.3840
 ------------------------------------------------------------------------------

      DV/DL, AVERAGES OVER   50000 STEPS

 NSTEP =    50000   TIME(PS) =     120.000  TEMP(K) =    10.61  PRESS =     0.0
 Etot   =         0.0000  EKtot   =         0.0000  EPtot      =        -4.6098
 BOND   =         0.0000  ANGLE   =         0.0000  DIHED      =         0.0000
 1-4 NB =         0.0000  1-4 EEL =         0.0000  VDWAALS    =         0.0000
 EELEC  =         1.5192  EHBOND  =         0.0000  RESTRAINT  =         0.0000
 EKCMT  =         0.0000  VIRIAL  =         0.0000  VOLUME     =         0.0000
                                                    Density    =         0.0000
 DV/DL  =        -4.6098
 ------------------------------------------------------------------------------

      A V E R A G E S   O V E R   50000 S T E P S

 NSTEP =   100000   TIME(PS) =     220.000  TEMP(K) =   297.54  PRESS =     0.0
 Etot   =    -10405.2037  EKtot   =      2425.9760  EPtot      =    -12831.1798
 BOND   =        18.5275  ANGLE   =        32.6079  DIHED      =        19.4850
 1-4 NB =         7.9079  1-4 EEL =       -63.1351  VDWAALS    =      1897.7769
 EELEC  =    -14744.3499  EHBOND  =         0.0000  RESTRAINT  =         0.0000
 EKCMT  =         0.0000  VIRIAL  =         0.0000  VOLUME     =     41165.3874
                                                    Density    =         0.9899
 DV/DL  =        -4.6834
 ------------------------------------------------------------------------------

      R M S  F L U C T U A T I O N S

 NSTEP =   100000   TIME(PS) =     220.000  TEMP(K) =     4.55  PRESS =     0.0
 Etot   =        60.4952  EKtot   =        37.0663  EPtot      =        54.2430
 BOND   =         3.9061  ANGLE   =         3.3243  DIHED      =         2.7949
 1-4 NB =         0.8645  1-4 EEL =         1.8830  VDWAALS    =        58.2780
 EELEC  =        92.2526  EHBOND  =         0.0000  RESTRAINT  =         0.0000
 EKCMT  =         0.0000  VIRIAL  =         0.0000  VOLUME     =       387.3646
                                                    Density    =         0.0093
 DV/DL  =         1.3428
 ------------------------------------------------------------------------------

      A V E R A G E S   O V E R   50000 S T E P S

 NSTEP =   100000   TIME(PS) =     220.000  TEMP(K) =   297.54  PRESS =     0.0
 Etot   =    -10405.2037  EKtot   =      2425.9760  EPtot      =    -12831.1798
 BOND   =        18.5275  ANGLE   =        32.6079  DIHED      =        19.4850
 1-4 NB =         7.9079  1-4 EEL =       -63.1351  VDWAALS    =      1897.7769
 EELEC  =    -14744.3499  EHBOND  =         0.0000  RESTRAINT  =         0.0000
 EKCMT  =         0.0000  VIRIAL  =         0.0000  VOLUME     =     41165.3874
                                                    Density    =         0.9899
 DV/DL  =        -4.6834
 ------------------------------------------------------------------------------

      R M S  F L U C T U A T I O N S

 NSTEP =   100000   TIME(PS) =     220.000  TEMP(K) =     4.55  PRESS =     0.0
 Etot   =        60.4952  EKtot   =        37.0663  EPtot      =        54.2430
 BOND   =         3.9061  ANGLE   =         3.3243  DIHED      =         2.7949
 1-4 NB =         0.8645  1-4 EEL =         1.8830  VDWAALS    =        58.2780
 EELEC  =        92.2526  EHBOND  =         0.0000  RESTRAINT  =         0.0000
 EKCMT  =         0.0000  VIRIAL  =         0.0000  VOLUME     =       387.3646
                                                    Density    =         0.0093
 DV/DL  =         1.3428
 ------------------------------------------------------------------------------

      DV/DL, AVERAGES OVER   50000 STEPS

 NSTEP =   100000   TIME(PS) =     220.000  TEMP(K) =     4.55  PRESS =     0.0
 Etot   =         0.0000  EKtot   =         0.0000  EPtot      =        -4.6366
 BOND   =         0.0000  ANGLE   =         0.0000  DIHED      =         0.0000
 1-4 NB =         0.0000  1-4 EEL =         0.0000  VDWAALS    =         0.0000
 EELEC  =         1.5193  EHBOND  =         0.0000  RESTRAINT  =         0.0000
 EKCMT  =         0.0000  VIRIAL  =         0.0000  VOLUME     =         0.0000
                                                    Density    =         0.0000
 DV/DL  =        -4.6366
 ------------------------------------------------------------------------------

      A V E R A G E S   O V E R   50000 S T E P S

 NSTEP =   500000   TIME(PS) =    1020.000  TEMP(K) =   296.98  PRESS =     0.0
 Etot   =    -10414.7345  EKtot   =      2421.3816  EPtot      =    -12836.1161
 BOND   =        18.7533  ANGLE   =        32.6670  DIHED      =        19.4419
 1-4 NB =         7.9787  1-4 EEL =       -63.0142  VDWAALS    =      1898.5344
 EELEC  =    -14750.4772  EHBOND  =         0.0000  RESTRAINT  =         0.0000
 EKCMT  =         0.0000  VIRIAL  =         0.0000  VOLUME     =     41266.0030
                                                    Density    =         0.9874
 DV/DL  =        -4.8380
 ------------------------------------------------------------------------------

      R M S  F L U C T U A T I O N S

 NSTEP =   500000   TIME(PS) =    1020.000  TEMP(K) =     4.61  PRESS =     0.0
 Etot   =        65.6499  EKtot   =        37.5817  EPtot      =        54.4207
 BOND   =         3.9815  ANGLE   =         3.3203  DIHED      =         2.8961
 1-4 NB =         0.8972  1-4 EEL =         2.0025  VDWAALS    =        55.5921
 EELEC  =        87.3210  EHBOND  =         0.0000  RESTRAINT  =         0.0000
 EKCMT  =         0.0000  VIRIAL  =         0.0000  VOLUME     =       376.7565
                                                    Density    =         0.0090
 DV/DL  =         1.3936
 ------------------------------------------------------------------------------

      A V E R A G E S   O V E R   50000 S T E P S

 NSTEP =   500000   TIME(PS) =    1020.000  TEMP(K) =   296.98  PRESS =     0.0
 Etot   =    -10414.7345  EKtot   =      2421.3816  EPtot      =    -12836.1161
 BOND   =        18.7533  ANGLE   =        32.6670  DIHED      =        19.4419
 1-4 NB =         7.9787  1-4 EEL =       -63.0142  VDWAALS    =      1898.5344
 EELEC  =    -14750.4772  EHBOND  =         0.0000  RESTRAINT  =         0.0000
 EKCMT  =         0.0000  VIRIAL  =         0.0000  VOLUME     =     41266.0030
                                                    Density    =         0.9874
 DV/DL  =        -4.8380
 ------------------------------------------------------------------------------

      R M S  F L U C T U A T I O N S

 NSTEP =   500000   TIME(PS) =    1020.000  TEMP(K) =     4.61  PRESS =     0.0
 Etot   =        65.6499  EKtot   =        37.5817  EPtot      =        54.4207
 BOND   =         3.9815  ANGLE   =         3.3203  DIHED      =         2.8961
 1-4 NB =         0.8972  1-4 EEL =         2.0025  VDWAALS    =        55.5921
 EELEC  =        87.3210  EHBOND  =         0.0000  RESTRAINT  =         0.0000
 EKCMT  =         0.0000  VIRIAL  =         0.0000  VOLUME     =       376.7565
                                                    Density    =         0.0090
 DV/DL  =         1.3936
 ------------------------------------------------------------------------------

      DV/DL, AVERAGES OVER   50000 STEPS

 NSTEP =   500000   TIME(PS) =    1020.000  TEMP(K) =     4.61  PRESS =     0.0
 Etot   =         0.0000  EKtot   =         0.0000  EPtot      =        -4.7897
 BOND   =         0.0000  ANGLE   =         0.0000  DIHED      =         0.0000
 1-4 NB =         0.0000  1-4 EEL =         0.0000  VDWAALS    =         0.0000
 EELEC  =         1.5192  EHBOND  =         0.0000  RESTRAINT  =         0.0000
 EKCMT  =         0.0000  VIRIAL  =         0.0000  VOLUME     =         0.0000
                                                    Density    =         0.0000
 DV/DL  =        -4.7897
 ------------------------------------------------------------------------------

      A V E R A G E S   O V E R  500000 S T E P S

 NSTEP =   500000   TIME(PS) =    1020.000  TEMP(K) =   297.23  PRESS =     0.0
 Etot   =    -10416.1765  EKtot   =      2423.4251  EPtot      =    -12839.6016
 BOND   =        18.5615  ANGLE   =        32.7685  DIHED      =        19.2845
 1-4 NB =         7.9920  1-4 EEL =       -63.8411  VDWAALS    =      1899.9206
 EELEC  =    -14754.2875  EHBOND  =         0.0000  RESTRAINT  =         0.0000
 EKCMT  =         0.0000  VIRIAL  =         0.0000  VOLUME     =     41229.0311
                                                    Density    =         0.9883
 DV/DL  =        -4.6715
 ------------------------------------------------------------------------------

      R M S  F L U C T U A T I O N S

 NSTEP =   500000   TIME(PS) =    1020.000  TEMP(K) =     5.56  PRESS =     0.0
 Etot   =       108.3350  EKtot   =        45.3048  EPtot      =        82.4609
 BOND   =         3.9010  ANGLE   =         3.3150  DIHED      =         2.8064
 1-4 NB =         0.9055  1-4 EEL =         2.7864  VDWAALS    =        62.5292
 EELEC  =       124.8795  EHBOND  =         0.0000  RESTRAINT  =         0.0000
 EKCMT  =         0.0000  VIRIAL  =         0.0000  VOLUME     =       325.6668
                                                    Density    =         0.0078
 DV/DL  =         1.3694
 ------------------------------------------------------------------------------

      A V E R A G E S   O V E R  500000 S T E P S

 NSTEP =   500000   TIME(PS) =    1020.000  TEMP(K) =   297.23  PRESS =     0.0
 Etot   =    -10416.1765  EKtot   =      2423.4251  EPtot      =    -12839.6016
 BOND   =        18.5615  ANGLE   =        32.7685  DIHED      =        19.2845
 1-4 NB =         7.9920  1-4 EEL =       -63.8411  VDWAALS    =      1899.9206
 EELEC  =    -14754.2875  EHBOND  =         0.0000  RESTRAINT  =         0.0000
 EKCMT  =         0.0000  VIRIAL  =         0.0000  VOLUME     =     41229.0311
                                                    Density    =         0.9883
 DV/DL  =        -4.6715
 ------------------------------------------------------------------------------

      R M S  F L U C T U A T I O N S

 NSTEP =   500000   TIME(PS) =    1020.000  TEMP(K) =     5.56  PRESS =     0.0
 Etot   =       108.3350  EKtot   =        45.3048  EPtot      =        82.4609
 BOND   =         3.9010  ANGLE   =         3.3150  DIHED      =         2.8064
 1-4 NB =         0.9055  1-4 EEL =         2.7864  VDWAALS    =        62.5292
 EELEC  =       124.8795  EHBOND  =         0.0000  RESTRAINT  =         0.0000
 EKCMT  =         0.0000  VIRIAL  =         0.0000  VOLUME     =       325.6668
                                                    Density    =         0.0078
 DV/DL  =         1.3694
 ------------------------------------------------------------------------------

      DV/DL, AVERAGES OVER  500000 STEPS

 NSTEP =   500000   TIME(PS) =    1020.000  TEMP(K) =     5.56  PRESS =     0.0
 Etot   =         0.0000  EKtot   =         0.0000  EPtot      =        -4.6250
 BOND   =         0.0000  ANGLE   =         0.0000  DIHED      =         0.0000
 1-4 NB =         0.0000  1-4 EEL =         0.0000  VDWAALS    =         0.0000
 EELEC  =         1.5192  EHBOND  =         0.0000  RESTRAINT  =         0.0000
 EKCMT  =         0.0000  VIRIAL  =         0.0000  VOLUME     =         0.0000
                                                    Density    =         0.0000
 DV/DL  =        -4.6250
 ------------------------------------------------------------------------------
