-------------------------------------------------------
          Amber 16 PMEMD                              2016
          -------------------------------------------------------

  [-O]verwriting output

File Assignments:

 Here is the input file:

TI/FEP, NpT, vdW+bonded transformation
 &cntrl
 ! please adjust namelist parameters to your needs!

 ! parameters for general MD
 imin = 0, nstlim = 500000, irest = 1, ntx = 5, dt = 0.002,
 ntt = 3, temp0 = 298.0, gamma_ln = 2.0, ig = -1,
 ntb = 2,
 ntp = 1, barostat = 2, pres0 = 1.01325, taup = 2.0,
 ntwe = 1000, ntwx = 10000, ntpr = 1000, ntwr = 50000, ntave = 50000,
 ioutfm = 1, iwrap = 1, ntxo = 2,

 ! parameters for alchemical free energy simulation
 ntc = 2, ntf = 1,
 noshakemask = ':1,2',

 icfe = 1, ifsc = 1, clambda = 0.95206, scalpha = 0.5, scbeta = 12.0,
 ifmbar = 0, bar_intervall = 500, bar_l_min = 0.0, bar_l_max = 1.0,
 bar_l_incr = 0.1,   ! ntpr = bar_intervall for alchemical analysis tool

 timask1=':1', timask2=':2',
scmask1='',
scmask2=':2@C28,O29,C30,H50,H51,H52,H53',
 crgmask = '',
 /
 &ewald
 /

Note: ig = -1. Setting random seed to   541829 based on wallclock time in
      microseconds.

--------------------------------------------------------------------------------
   1.  RESOURCE   USE:
--------------------------------------------------------------------------------

 getting box info from netcdf restart file
 NATOM  =    5979 NTYPES =      16 NBONH =    5922 MBONA  =      59
 NTHETH =      86 MTHETA =      80 NPHIH =     132 MPHIA  =     124
 NHPARM =       0 NPARM  =       0 NNB   =    8319 NRES   =    1962
 NBONA  =      59 NTHETA =      80 NPHIA =     124 NUMBND =      21
 NUMANG =      31 NPTRA  =      21 NATYP =      17 NPHB   =       1
 IFBOX  =       1 NMXRS  =      53 IFCAP =       0 NEXTRA =       0
 NCOPY  =       0

     BOX TYPE: RECTILINEAR

--------------------------------------------------------------------------------
   2.  CONTROL  DATA  FOR  THE  RUN
--------------------------------------------------------------------------------

L0

General flags:
     imin    =       0, nmropt  =       0

Nature and format of input:
     ntx     =       5, irest   =       1, ntrx    =       1

Nature and format of output:
     ntxo    =       2, ntpr    =    1000, ntrx    =       1, ntwr    =   50000
     iwrap   =       1, ntwx    =   10000, ntwv    =       0, ntwe    =    1000
     ioutfm  =       1, ntwprt  =       0, idecomp =       0, rbornstat=      0

Potential function:
     ntf     =       1, ntb     =       2, igb     =       0, nsnb    =      25
     ipol    =       0, gbsa    =       0, iesp    =       0
     dielc   =   1.00000, cut     =   8.00000, intdiel =   1.00000

Frozen or restrained atoms:
     ibelly  =       0, ntr     =       0

Molecular dynamics:
     nstlim  =    500000, nscm    =      1000, nrespa  =         1
     t       =   0.00000, dt      =   0.00200, vlimit  =  -1.00000

Langevin dynamics temperature regulation:
     ig      =  541829
     temp0   = 298.00000, tempi   =   0.00000, gamma_ln=   2.00000

Pressure regulation:
     ntp     =       1
     pres0   =   1.01325, comp    =  44.60000, taup    =   2.00000
     Monte-Carlo Barostat:
     mcbarint  =     100

SHAKE:
     ntc     =       2, jfastw  =       0
     tol     =   0.00001

Free energy options:
     icfe    =       1, ifsc    =       1, klambda =       1
     clambda =  0.9521, scalpha =  0.5000, scbeta  = 12.0000
     sceeorder =       2
     dynlmb =  0.0000 logdvdl =       0

Ewald parameters:
     verbose =       0, ew_type =       0, nbflag  =       1, use_pme =       1
     vdwmeth =       1, eedmeth =       1, netfrc  =       1
     Box X =   40.877   Box Y =   43.011   Box Z =   34.124
     Alpha =   90.000   Beta  =   90.000   Gamma =   90.000
     NFFT1 =   48       NFFT2 =   48       NFFT3 =   36
     Cutoff=    8.000   Tol   =0.100E-04
     Ewald Coefficient =  0.34864
     Interpolation order =    4
     TI Mask 1 :1; matches     46 atoms
     TI Mask 2 :2; matches     53 atoms
     TI region 1:    5926 atoms
     TI region 2:    5933 atoms
     SC Mask 2 :2@C28,O29,C30,H50,H51,H52,H53; matches      7 atoms
 Noshake mask :1,2; matches      99 atoms.

--------------------------------------------------------------------------------
   3.  ATOMIC COORDINATES AND VELOCITIES
--------------------------------------------------------------------------------

L0
 begin time read from input coords =    20.000 ps

     Molecule     1 is partially softcore
     Molecule     2 is partially softcore
 Number of triangulated 3-point waters found:     1960
   Removing shake constraints from C27   L0    1 -- H44   L0    1
   Removing shake constraints from C27   L0    1 -- H45   L0    1
   Removing shake constraints from C27   L0    1 -- H46   L0    1
   Removing shake constraints from C25   L0    1 -- H43   L0    1
   Removing shake constraints from C21   L0    1 -- H42   L0    1
   Removing shake constraints from C20   L0    1 -- H39   L0    1
   Removing shake constraints from C20   L0    1 -- H40   L0    1
   Removing shake constraints from C20   L0    1 -- H41   L0    1
   Removing shake constraints from C16   L0    1 -- H37   L0    1
   Removing shake constraints from C16   L0    1 -- H38   L0    1
   Removing shake constraints from N13   L0    1 -- H36   L0    1
   Removing shake constraints from N9    L0    1 -- H35   L0    1
   Removing shake constraints from N9    L0    1 -- H34   L0    1
   Removing shake constraints from C7    L0    1 -- H33   L0    1
   Removing shake constraints from C2    L0    1 -- H31   L0    1
   Removing shake constraints from C2    L0    1 -- H32   L0    1
   Removing shake constraints from C1    L0    1 -- H28   L0    1
   Removing shake constraints from C1    L0    1 -- H29   L0    1
   Removing shake constraints from C1    L0    1 -- H30   L0    1
   Removing shake constraints from C30   INT   2 -- H52   INT   2
   Removing shake constraints from C30   INT   2 -- H53   INT   2
   Removing shake constraints from C30   INT   2 -- H51   INT   2
   Removing shake constraints from C26   INT   2 -- H47   INT   2
   Removing shake constraints from C26   INT   2 -- H48   INT   2
   Removing shake constraints from C26   INT   2 -- H49   INT   2
   Removing shake constraints from C24   INT   2 -- H46   INT   2
   Removing shake constraints from N27   INT   2 -- H50   INT   2
   Removing shake constraints from C21   INT   2 -- H45   INT   2
   Removing shake constraints from C20   INT   2 -- H42   INT   2
   Removing shake constraints from C20   INT   2 -- H43   INT   2
   Removing shake constraints from C20   INT   2 -- H44   INT   2
   Removing shake constraints from C16   INT   2 -- H40   INT   2
   Removing shake constraints from C16   INT   2 -- H41   INT   2
   Removing shake constraints from N13   INT   2 -- H39   INT   2
   Removing shake constraints from N9    INT   2 -- H38   INT   2
   Removing shake constraints from N9    INT   2 -- H37   INT   2
   Removing shake constraints from C7    INT   2 -- H36   INT   2
   Removing shake constraints from C2    INT   2 -- H34   INT   2
   Removing shake constraints from C2    INT   2 -- H35   INT   2
   Removing shake constraints from C1    INT   2 -- H31   INT   2
   Removing shake constraints from C1    INT   2 -- H32   INT   2
   Removing shake constraints from C1    INT   2 -- H33   INT   2
 WARNING: SHAKEn bond for atoms       69       96 is partially softcore.
 Coordinates for common atoms will be synchronized from V0.
 Consider using noshake mask or disabling SHAKE.

 Number of shake restraints removed in TI region  1 :       19
 Number of shake restraints removed in TI region  2 :       23

     Sum of charges for TI region  1 =   0.00001100
     Forcing neutrality...

     Sum of charges for TI region  2 =   0.00001100
     Forcing neutrality...

--------------------------------------------------------------------------------
   4.  RESULTS
 NSTEP =     1000   TIME(PS) =      22.000  TEMP(K) =   284.99  PRESS =     0.0
 Etot   =    -16300.6420  EKtot   =      3363.6711  EPtot      =    -19664.3131
 BOND   =        19.6572  ANGLE   =        21.5904  DIHED      =        14.2563
 1-4 NB =        16.1944  1-4 EEL =      -645.3058  VDWAALS    =      3075.0118
 EELEC  =    -22165.7176  EHBOND  =         0.0000  RESTRAINT  =         0.0000
 EKCMT  =         0.0000  VIRIAL  =         0.0000  VOLUME     =     60377.0118
                                                    Density    =         0.9832
 DV/DL  =       -50.5119
 ------------------------------------------------------------------------------

      A V E R A G E S   O V E R   50000 S T E P S

 NSTEP =    50000   TIME(PS) =     120.000  TEMP(K) =   297.32  PRESS =     0.0
 Etot   =    -15559.3049  EKtot   =      3509.2102  EPtot      =    -19068.5151
 BOND   =        20.4938  ANGLE   =        20.6833  DIHED      =        17.3226
 1-4 NB =        14.9593  1-4 EEL =      -640.3444  VDWAALS    =      2801.0545
 EELEC  =    -21302.6844  EHBOND  =         0.0000  RESTRAINT  =         0.0000
 EKCMT  =         0.0000  VIRIAL  =         0.0000  VOLUME     =     60077.7126
                                                    Density    =         0.9881
 DV/DL  =       -36.1273
 ------------------------------------------------------------------------------

      R M S  F L U C T U A T I O N S

 NSTEP =    50000   TIME(PS) =     120.000  TEMP(K) =    10.38  PRESS =     0.0
 Etot   =       399.2814  EKtot   =       122.4755  EPtot      =       286.4328
 BOND   =         4.0856  ANGLE   =         3.6935  DIHED      =         3.5689
 1-4 NB =         1.3993  1-4 EEL =         4.3468  VDWAALS    =       138.8358
 EELEC  =       412.5505  EHBOND  =         0.0000  RESTRAINT  =         0.0000
 EKCMT  =         0.0000  VIRIAL  =         0.0000  VOLUME     =       353.2944
                                                    Density    =         0.0058
 DV/DL  =         7.6703
 ------------------------------------------------------------------------------

      A V E R A G E S   O V E R   50000 S T E P S

 NSTEP =    50000   TIME(PS) =     120.000  TEMP(K) =   297.26  PRESS =     0.0
 Etot   =    -15553.8319  EKtot   =      3514.6832  EPtot      =    -19068.5151
 BOND   =        20.4938  ANGLE   =        20.6833  DIHED      =        17.3226
 1-4 NB =        14.9593  1-4 EEL =      -640.3444  VDWAALS    =      2801.0545
 EELEC  =    -21302.6844  EHBOND  =         0.0000  RESTRAINT  =         0.0000
 EKCMT  =         0.0000  VIRIAL  =         0.0000  VOLUME     =     60077.7126
                                                    Density    =         0.9893
 DV/DL  =       -36.1273
 ------------------------------------------------------------------------------

      R M S  F L U C T U A T I O N S

 NSTEP =    50000   TIME(PS) =     120.000  TEMP(K) =    10.37  PRESS =     0.0
 Etot   =       399.4327  EKtot   =       122.6341  EPtot      =       286.4328
 BOND   =         4.0856  ANGLE   =         3.6935  DIHED      =         3.5689
 1-4 NB =         1.3993  1-4 EEL =         4.3468  VDWAALS    =       138.8358
 EELEC  =       412.5505  EHBOND  =         0.0000  RESTRAINT  =         0.0000
 EKCMT  =         0.0000  VIRIAL  =         0.0000  VOLUME     =       353.2944
                                                    Density    =         0.0058
 DV/DL  =         7.6703
 ------------------------------------------------------------------------------

      DV/DL, AVERAGES OVER   50000 STEPS

 NSTEP =    50000   TIME(PS) =     120.000  TEMP(K) =    10.37  PRESS =     0.0
 Etot   =         0.0000  EKtot   =         0.0000  EPtot      =       -35.7662
 BOND   =         0.0000  ANGLE   =         0.0000  DIHED      =         0.0000
 1-4 NB =         0.0000  1-4 EEL =         0.0000  VDWAALS    =        -0.3358
 EELEC  =         0.0000  EHBOND  =         0.0000  RESTRAINT  =         0.0000
 EKCMT  =         0.0000  VIRIAL  =         0.0000  VOLUME     =         0.0000
                                                    Density    =         0.0000
 DV/DL  =       -35.7662
 ------------------------------------------------------------------------------

      A V E R A G E S   O V E R   50000 S T E P S

 NSTEP =   100000   TIME(PS) =     220.000  TEMP(K) =   298.31  PRESS =     0.0
 Etot   =    -15508.9015  EKtot   =      3520.8784  EPtot      =    -19029.7799
 BOND   =        20.4878  ANGLE   =        19.9559  DIHED      =        17.7797
 1-4 NB =        15.0585  1-4 EEL =      -639.2904  VDWAALS    =      2779.5751
 EELEC  =    -21243.3464  EHBOND  =         0.0000  RESTRAINT  =         0.0000
 EKCMT  =         0.0000  VIRIAL  =         0.0000  VOLUME     =     60022.7942
                                                    Density    =         0.9890
 DV/DL  =       -36.2995
 ------------------------------------------------------------------------------

      R M S  F L U C T U A T I O N S

 NSTEP =   100000   TIME(PS) =     220.000  TEMP(K) =     3.85  PRESS =     0.0
 Etot   =        83.9732  EKtot   =        45.4933  EPtot      =        69.5590
 BOND   =         3.8582  ANGLE   =         3.4211  DIHED      =         3.5266
 1-4 NB =         1.4323  1-4 EEL =         4.2334  VDWAALS    =        66.6016
 EELEC  =       109.9848  EHBOND  =         0.0000  RESTRAINT  =         0.0000
 EKCMT  =         0.0000  VIRIAL  =         0.0000  VOLUME     =       297.6107
                                                    Density    =         0.0049
 DV/DL  =         7.6121
 ------------------------------------------------------------------------------

      A V E R A G E S   O V E R   50000 S T E P S

 NSTEP =   100000   TIME(PS) =     220.000  TEMP(K) =   298.22  PRESS =     0.0
 Etot   =    -15503.6313  EKtot   =      3526.1486  EPtot      =    -19029.7799
 BOND   =        20.4878  ANGLE   =        19.9559  DIHED      =        17.7797
 1-4 NB =        15.0585  1-4 EEL =      -639.2904  VDWAALS    =      2779.5751
 EELEC  =    -21243.3464  EHBOND  =         0.0000  RESTRAINT  =         0.0000
 EKCMT  =         0.0000  VIRIAL  =         0.0000  VOLUME     =     60022.7942
                                                    Density    =         0.9902
 DV/DL  =       -36.2995
 ------------------------------------------------------------------------------

      R M S  F L U C T U A T I O N S

 NSTEP =   100000   TIME(PS) =     220.000  TEMP(K) =     3.84  PRESS =     0.0
 Etot   =        83.8162  EKtot   =        45.4061  EPtot      =        69.5590
 BOND   =         3.8582  ANGLE   =         3.4211  DIHED      =         3.5266
 1-4 NB =         1.4323  1-4 EEL =         4.2334  VDWAALS    =        66.6016
 EELEC  =       109.9848  EHBOND  =         0.0000  RESTRAINT  =         0.0000
 EKCMT  =         0.0000  VIRIAL  =         0.0000  VOLUME     =       297.6107
                                                    Density    =         0.0049
 DV/DL  =         7.6121
 ------------------------------------------------------------------------------

      DV/DL, AVERAGES OVER   50000 STEPS

 NSTEP =   100000   TIME(PS) =     220.000  TEMP(K) =     3.84  PRESS =     0.0
 Etot   =         0.0000  EKtot   =         0.0000  EPtot      =       -35.9376
 BOND   =         0.0000  ANGLE   =         0.0000  DIHED      =         0.0000
 1-4 NB =         0.0000  1-4 EEL =         0.0000  VDWAALS    =        -0.3361
 EELEC  =         0.0000  EHBOND  =         0.0000  RESTRAINT  =         0.0000
 EKCMT  =         0.0000  VIRIAL  =         0.0000  VOLUME     =         0.0000
                                                    Density    =         0.0000
 DV/DL  =       -35.9376
 ------------------------------------------------------------------------------

      A V E R A G E S   O V E R   50000 S T E P S

 NSTEP =   500000   TIME(PS) =    1020.000  TEMP(K) =   298.75  PRESS =     0.0
 Etot   =    -15493.9709  EKtot   =      3526.0836  EPtot      =    -19020.0545
 BOND   =        20.4140  ANGLE   =        19.9949  DIHED      =        17.3636
 1-4 NB =        14.9779  1-4 EEL =      -640.4887  VDWAALS    =      2779.9761
 EELEC  =    -21232.2923  EHBOND  =         0.0000  RESTRAINT  =         0.0000
 EKCMT  =         0.0000  VIRIAL  =         0.0000  VOLUME     =     60056.3695
                                                    Density    =         0.9884
 DV/DL  =       -35.7516
 ------------------------------------------------------------------------------

      R M S  F L U C T U A T I O N S

 NSTEP =   500000   TIME(PS) =    1020.000  TEMP(K) =     3.90  PRESS =     0.0
 Etot   =        89.4369  EKtot   =        46.0069  EPtot      =        73.5294
 BOND   =         3.7102  ANGLE   =         3.4642  DIHED      =         3.7225
 1-4 NB =         1.4199  1-4 EEL =         4.3822  VDWAALS    =        70.2417
 EELEC  =       116.5093  EHBOND  =         0.0000  RESTRAINT  =         0.0000
 EKCMT  =         0.0000  VIRIAL  =         0.0000  VOLUME     =       409.5254
                                                    Density    =         0.0067
 DV/DL  =         7.4205
 ------------------------------------------------------------------------------

      A V E R A G E S   O V E R   50000 S T E P S

 NSTEP =   500000   TIME(PS) =    1020.000  TEMP(K) =   298.68  PRESS =     0.0
 Etot   =    -15488.5535  EKtot   =      3531.5010  EPtot      =    -19020.0545
 BOND   =        20.4140  ANGLE   =        19.9949  DIHED      =        17.3636
 1-4 NB =        14.9779  1-4 EEL =      -640.4887  VDWAALS    =      2779.9761
 EELEC  =    -21232.2923  EHBOND  =         0.0000  RESTRAINT  =         0.0000
 EKCMT  =         0.0000  VIRIAL  =         0.0000  VOLUME     =     60056.3695
                                                    Density    =         0.9897
 DV/DL  =       -35.7516
 ------------------------------------------------------------------------------

      R M S  F L U C T U A T I O N S

 NSTEP =   500000   TIME(PS) =    1020.000  TEMP(K) =     3.90  PRESS =     0.0
 Etot   =        89.4032  EKtot   =        46.0982  EPtot      =        73.5294
 BOND   =         3.7102  ANGLE   =         3.4642  DIHED      =         3.7225
 1-4 NB =         1.4199  1-4 EEL =         4.3822  VDWAALS    =        70.2417
 EELEC  =       116.5093  EHBOND  =         0.0000  RESTRAINT  =         0.0000
 EKCMT  =         0.0000  VIRIAL  =         0.0000  VOLUME     =       409.5254
                                                    Density    =         0.0068
 DV/DL  =         7.4205
 ------------------------------------------------------------------------------

      DV/DL, AVERAGES OVER   50000 STEPS

 NSTEP =   500000   TIME(PS) =    1020.000  TEMP(K) =     3.90  PRESS =     0.0
 Etot   =         0.0000  EKtot   =         0.0000  EPtot      =       -35.3953
 BOND   =         0.0000  ANGLE   =         0.0000  DIHED      =         0.0000
 1-4 NB =         0.0000  1-4 EEL =         0.0000  VDWAALS    =        -0.3359
 EELEC  =         0.0000  EHBOND  =         0.0000  RESTRAINT  =         0.0000
 EKCMT  =         0.0000  VIRIAL  =         0.0000  VOLUME     =         0.0000
                                                    Density    =         0.0000
 DV/DL  =       -35.3953
 ------------------------------------------------------------------------------

      A V E R A G E S   O V E R  500000 S T E P S

 NSTEP =   500000   TIME(PS) =    1020.000  TEMP(K) =   298.39  PRESS =     0.0
 Etot   =    -15506.8517  EKtot   =      3521.9009  EPtot      =    -19028.7526
 BOND   =        20.5004  ANGLE   =        20.3601  DIHED      =        17.5340
 1-4 NB =        14.9976  1-4 EEL =      -640.0572  VDWAALS    =      2782.3565
 EELEC  =    -21244.4440  EHBOND  =         0.0000  RESTRAINT  =         0.0000
 EKCMT  =         0.0000  VIRIAL  =         0.0000  VOLUME     =     60078.2284
                                                    Density    =         0.9881
 DV/DL  =       -36.0460
 ------------------------------------------------------------------------------

      R M S  F L U C T U A T I O N S

 NSTEP =   500000   TIME(PS) =    1020.000  TEMP(K) =     4.93  PRESS =     0.0
 Etot   =       149.8546  EKtot   =        58.2177  EPtot      =       112.4650
 BOND   =         3.8646  ANGLE   =         3.5869  DIHED      =         3.5509
 1-4 NB =         1.4255  1-4 EEL =         4.3509  VDWAALS    =        79.4712
 EELEC  =       169.4266  EHBOND  =         0.0000  RESTRAINT  =         0.0000
 EKCMT  =         0.0000  VIRIAL  =         0.0000  VOLUME     =       365.1130
                                                    Density    =         0.0060
 DV/DL  =         7.5359
 ------------------------------------------------------------------------------

      A V E R A G E S   O V E R  500000 S T E P S

 NSTEP =   500000   TIME(PS) =    1020.000  TEMP(K) =   298.33  PRESS =     0.0
 Etot   =    -15501.3872  EKtot   =      3527.3653  EPtot      =    -19028.7526
 BOND   =        20.5004  ANGLE   =        20.3601  DIHED      =        17.5340
 1-4 NB =        14.9976  1-4 EEL =      -640.0572  VDWAALS    =      2782.3565
 EELEC  =    -21244.4440  EHBOND  =         0.0000  RESTRAINT  =         0.0000
 EKCMT  =         0.0000  VIRIAL  =         0.0000  VOLUME     =     60078.2284
                                                    Density    =         0.9893
 DV/DL  =       -36.0460
 ------------------------------------------------------------------------------

      R M S  F L U C T U A T I O N S

 NSTEP =   500000   TIME(PS) =    1020.000  TEMP(K) =     4.93  PRESS =     0.0
 Etot   =       149.8920  EKtot   =        58.2685  EPtot      =       112.4650
 BOND   =         3.8646  ANGLE   =         3.5869  DIHED      =         3.5509
 1-4 NB =         1.4255  1-4 EEL =         4.3509  VDWAALS    =        79.4712
 EELEC  =       169.4266  EHBOND  =         0.0000  RESTRAINT  =         0.0000
 EKCMT  =         0.0000  VIRIAL  =         0.0000  VOLUME     =       365.1130
                                                    Density    =         0.0060
 DV/DL  =         7.5359
 ------------------------------------------------------------------------------

      DV/DL, AVERAGES OVER  500000 STEPS

 NSTEP =   500000   TIME(PS) =    1020.000  TEMP(K) =     4.93  PRESS =     0.0
 Etot   =         0.0000  EKtot   =         0.0000  EPtot      =       -35.6849
 BOND   =         0.0000  ANGLE   =         0.0000  DIHED      =         0.0000
 1-4 NB =         0.0000  1-4 EEL =         0.0000  VDWAALS    =        -0.3358
 EELEC  =         0.0000  EHBOND  =         0.0000  RESTRAINT  =         0.0000
 EKCMT  =         0.0000  VIRIAL  =         0.0000  VOLUME     =         0.0000
                                                    Density    =         0.0000
 DV/DL  =       -35.6849
 ------------------------------------------------------------------------------
