-------------------------------------------------------
          Amber 16 PMEMD                              2016
          -------------------------------------------------------

  [-O]verwriting output

File Assignments:

 Here is the input file:

TI/FEP, NpT, recharge transformation
 &cntrl
 ! please adjust namelist parameters to your needs!

 ! parameters for general MD
 imin = 0, nstlim = 500000, irest = 1, ntx = 5, dt = 0.002,
 ntt = 3, temp0 = 298.0, gamma_ln = 2.0, ig = -1,
 ntb = 2,
 ntp = 1, barostat = 2, pres0 = 1.01325, taup = 2.0,
 ntwe = 100, ntwx = 10000, ntpr = 1000, ntwr = 50000, ntave = 50000,
 ioutfm = 1, iwrap = 1, ntxo = 2,

 ! parameters for alchemical free energy simulation
 ntc = 2, ntf = 1,
 noshakemask = ':1,2',

 icfe = 1, ifsc = 0, clambda = 1.00, scalpha = 0.5, scbeta = 12.0,
 ifmbar = 1, mbar_lambda = 0.00 0.25 0.50 0.75 1.00,
 mbar_states = 5, bar_intervall = 1000,   ! ntpr = bar_intervall for alchemical

 timask1=':1', timask2=':2',
scmask1='',
scmask2='',
 crgmask = ':1@Cl18',
 /
 &ewald
 /

Note: ig = -1. Setting random seed to   491166 based on wallclock time in
      microseconds.

--------------------------------------------------------------------------------
   1.  RESOURCE   USE:
--------------------------------------------------------------------------------

 getting box info from netcdf restart file
 NATOM  =    4115 NTYPES =      13 NBONH =    4065 MBONA  =      56
 NTHETH =      76 MTHETA =      86 NPHIH =     150 MPHIA  =     136
 NHPARM =       0 NPARM  =       0 NNB   =    5842 NRES   =    1345
 NBONA  =      56 NTHETA =      86 NPHIA =     136 NUMBND =      22
 NUMANG =      35 NPTRA  =      14 NATYP =      17 NPHB   =       1
 IFBOX  =       1 NMXRS  =      43 IFCAP =       0 NEXTRA =       0
 NCOPY  =       0

     BOX TYPE: RECTILINEAR

--------------------------------------------------------------------------------
   2.  CONTROL  DATA  FOR  THE  RUN
--------------------------------------------------------------------------------

L1

General flags:
     imin    =       0, nmropt  =       0

Nature and format of input:
     ntx     =       5, irest   =       1, ntrx    =       1

Nature and format of output:
     ntxo    =       2, ntpr    =    1000, ntrx    =       1, ntwr    =   50000
     iwrap   =       1, ntwx    =   10000, ntwv    =       0, ntwe    =     100
     ioutfm  =       1, ntwprt  =       0, idecomp =       0, rbornstat=      0

Potential function:
     ntf     =       1, ntb     =       2, igb     =       0, nsnb    =      25
     ipol    =       0, gbsa    =       0, iesp    =       0
     dielc   =   1.00000, cut     =   8.00000, intdiel =   1.00000

Frozen or restrained atoms:
     ibelly  =       0, ntr     =       0

Molecular dynamics:
     nstlim  =    500000, nscm    =      1000, nrespa  =         1
     t       =   0.00000, dt      =   0.00200, vlimit  =  -1.00000

Langevin dynamics temperature regulation:
     ig      =  491166
     temp0   = 298.00000, tempi   =   0.00000, gamma_ln=   2.00000

Pressure regulation:
     ntp     =       1
     pres0   =   1.01325, comp    =  44.60000, taup    =   2.00000
     Monte-Carlo Barostat:
     mcbarint  =     100

SHAKE:
     ntc     =       2, jfastw  =       0
     tol     =   0.00001

Free energy options:
     icfe    =       1, ifsc    =       0, klambda =       1
     clambda =  1.0000, scalpha =  0.5000, scbeta  = 12.0000
     sceeorder =       2
     dynlmb =  0.0000 logdvdl =       0

FEP MBAR options:
     ifmbar  =       1,  bar_intervall =     1000
     mbar_states =       5

Ewald parameters:
     verbose =       0, ew_type =       0, nbflag  =       1, use_pme =       1
     vdwmeth =       1, eedmeth =       1, netfrc  =       1
     Box X =   32.703   Box Y =   37.439   Box Z =   33.758
     Alpha =   90.000   Beta  =   90.000   Gamma =   90.000
     NFFT1 =   36       NFFT2 =   40       NFFT3 =   36
     Cutoff=    8.000   Tol   =0.100E-04
     Ewald Coefficient =  0.34864
     Interpolation order =    4
     TI Mask 1 :1; matches     43 atoms
     TI Mask 2 :2; matches     43 atoms
     TI region 1:    4072 atoms
     TI region 2:    4072 atoms
Removing charge of      -0.0609 from atom      43
Total charge of  -0.06094600 removed from       1 atoms

    MBAR - lambda values considered:
       5 total:  0.0000 0.2500 0.5000 0.7500 1.0000
    Extra energies will be computed    500 times.
     Checking for mismatched coordinates.
 Noshake mask :1,2; matches      86 atoms.

--------------------------------------------------------------------------------
   3.  ATOMIC COORDINATES AND VELOCITIES
--------------------------------------------------------------------------------

L1
 begin time read from input coords =    20.000 ps

 Number of triangulated 3-point waters found:     1343
   Removing shake constraints from C23   L1    1 -- H41   L1    1
   Removing shake constraints from C23   L1    1 -- H42   L1    1
   Removing shake constraints from C22   L1    1 -- H39   L1    1
   Removing shake constraints from C22   L1    1 -- H40   L1    1
   Removing shake constraints from C21   L1    1 -- H38   L1    1
   Removing shake constraints from C20   L1    1 -- H37   L1    1
   Removing shake constraints from C13   L1    1 -- H34   L1    1
   Removing shake constraints from C16   L1    1 -- H35   L1    1
   Removing shake constraints from C19   L1    1 -- H36   L1    1
   Removing shake constraints from C10   L1    1 -- H33   L1    1
   Removing shake constraints from C9    L1    1 -- H32   L1    1
   Removing shake constraints from C8    L1    1 -- H31   L1    1
   Removing shake constraints from N5    L1    1 -- H30   L1    1
   Removing shake constraints from N4    L1    1 -- H43   L1    1
   Removing shake constraints from N4    L1    1 -- H29   L1    1
   Removing shake constraints from C1    L1    1 -- H26   L1    1
   Removing shake constraints from C1    L1    1 -- H27   L1    1
   Removing shake constraints from C1    L1    1 -- H28   L1    1
   Removing shake constraints from C23   L1    2 -- H41   L1    2
   Removing shake constraints from C23   L1    2 -- H42   L1    2
   Removing shake constraints from C22   L1    2 -- H39   L1    2
   Removing shake constraints from C22   L1    2 -- H40   L1    2
   Removing shake constraints from C21   L1    2 -- H38   L1    2
   Removing shake constraints from C20   L1    2 -- H37   L1    2
   Removing shake constraints from C13   L1    2 -- H34   L1    2
   Removing shake constraints from C16   L1    2 -- H35   L1    2
   Removing shake constraints from C19   L1    2 -- H36   L1    2
   Removing shake constraints from C10   L1    2 -- H33   L1    2
   Removing shake constraints from C9    L1    2 -- H32   L1    2
   Removing shake constraints from C8    L1    2 -- H31   L1    2
   Removing shake constraints from N5    L1    2 -- H30   L1    2
   Removing shake constraints from N4    L1    2 -- H43   L1    2
   Removing shake constraints from N4    L1    2 -- H29   L1    2
   Removing shake constraints from C1    L1    2 -- H26   L1    2
   Removing shake constraints from C1    L1    2 -- H27   L1    2
   Removing shake constraints from C1    L1    2 -- H28   L1    2
 Number of shake restraints removed:       36

     Sum of charges for TI region  1 =   1.06096699
     Assuming uniform neutralizing plasma

     Sum of charges for TI region  2 =   1.00002099
     Assuming uniform neutralizing plasma

--------------------------------------------------------------------------------
   4.  RESULTS
 NSTEP =     1000   TIME(PS) =      22.000  TEMP(K) =   273.42  PRESS =     0.0
 Etot   =    -10919.6520  EKtot   =      2229.0505  EPtot      =    -13148.7026
 BOND   =        18.7960  ANGLE   =        32.5844  DIHED      =        16.9344
 1-4 NB =         8.6480  1-4 EEL =       -70.6425  VDWAALS    =      2113.5779
 EELEC  =    -15268.6008  EHBOND  =         0.0000  RESTRAINT  =         0.0000
 EKCMT  =         0.0000  VIRIAL  =         0.0000  VOLUME     =     41865.4119
                                                    Density    =         0.9746
 DV/DL  =        -2.2161
 ------------------------------------------------------------------------------

      A V E R A G E S   O V E R   50000 S T E P S

 NSTEP =    50000   TIME(PS) =     120.000  TEMP(K) =   296.16  PRESS =     0.0
 Etot   =    -10452.9314  EKtot   =      2414.4068  EPtot      =    -12867.3383
 BOND   =        17.9619  ANGLE   =        32.2059  DIHED      =        18.9673
 1-4 NB =         7.9713  1-4 EEL =       -71.9516  VDWAALS    =      1908.9068
 EELEC  =    -14781.3999  EHBOND  =         0.0000  RESTRAINT  =         0.0000
 EKCMT  =         0.0000  VIRIAL  =         0.0000  VOLUME     =     41315.6178
                                                    Density    =         0.9876
 DV/DL  =        -2.0007
 ------------------------------------------------------------------------------

      R M S  F L U C T U A T I O N S

 NSTEP =    50000   TIME(PS) =     120.000  TEMP(K) =    10.68  PRESS =     0.0
 Etot   =       278.3690  EKtot   =        87.0678  EPtot      =       200.2810
 BOND   =         3.7197  ANGLE   =         3.2433  DIHED      =         2.8195
 1-4 NB =         0.9010  1-4 EEL =         2.4831  VDWAALS    =       100.2131
 EELEC  =       288.2078  EHBOND  =         0.0000  RESTRAINT  =         0.0000
 EKCMT  =         0.0000  VIRIAL  =         0.0000  VOLUME     =       363.5267
                                                    Density    =         0.0087
 DV/DL  =         0.5182
 ------------------------------------------------------------------------------

      A V E R A G E S   O V E R   50000 S T E P S

 NSTEP =    50000   TIME(PS) =     120.000  TEMP(K) =   296.16  PRESS =     0.0
 Etot   =    -10452.9314  EKtot   =      2414.4068  EPtot      =    -12867.3383
 BOND   =        17.9619  ANGLE   =        32.2059  DIHED      =        18.9673
 1-4 NB =         7.9713  1-4 EEL =       -71.9516  VDWAALS    =      1908.9068
 EELEC  =    -14781.3999  EHBOND  =         0.0000  RESTRAINT  =         0.0000
 EKCMT  =         0.0000  VIRIAL  =         0.0000  VOLUME     =     41315.6178
                                                    Density    =         0.9876
 DV/DL  =        -2.0007
 ------------------------------------------------------------------------------

      R M S  F L U C T U A T I O N S

 NSTEP =    50000   TIME(PS) =     120.000  TEMP(K) =    10.68  PRESS =     0.0
 Etot   =       278.3690  EKtot   =        87.0678  EPtot      =       200.2810
 BOND   =         3.7197  ANGLE   =         3.2433  DIHED      =         2.8195
 1-4 NB =         0.9010  1-4 EEL =         2.4831  VDWAALS    =       100.2131
 EELEC  =       288.2078  EHBOND  =         0.0000  RESTRAINT  =         0.0000
 EKCMT  =         0.0000  VIRIAL  =         0.0000  VOLUME     =       363.5267
                                                    Density    =         0.0087
 DV/DL  =         0.5182
 ------------------------------------------------------------------------------

      DV/DL, AVERAGES OVER   50000 STEPS

 NSTEP =    50000   TIME(PS) =     120.000  TEMP(K) =    10.68  PRESS =     0.0
 Etot   =         0.0000  EKtot   =         0.0000  EPtot      =        -1.9808
 BOND   =         0.0000  ANGLE   =         0.0000  DIHED      =         0.0000
 1-4 NB =         0.0000  1-4 EEL =         0.0000  VDWAALS    =         0.0000
 EELEC  =        -0.2296  EHBOND  =         0.0000  RESTRAINT  =         0.0000
 EKCMT  =         0.0000  VIRIAL  =         0.0000  VOLUME     =         0.0000
                                                    Density    =         0.0000
 DV/DL  =        -1.9808
 ------------------------------------------------------------------------------

      A V E R A G E S   O V E R   50000 S T E P S

 NSTEP =   100000   TIME(PS) =     220.000  TEMP(K) =   296.94  PRESS =     0.0
 Etot   =    -10426.4595  EKtot   =      2420.7536  EPtot      =    -12847.2131
 BOND   =        18.1822  ANGLE   =        32.7213  DIHED      =        18.6768
 1-4 NB =         7.8969  1-4 EEL =       -75.5209  VDWAALS    =      1899.7537
 EELEC  =    -14748.9231  EHBOND  =         0.0000  RESTRAINT  =         0.0000
 EKCMT  =         0.0000  VIRIAL  =         0.0000  VOLUME     =     41299.7590
                                                    Density    =         0.9880
 DV/DL  =        -2.0102
 ------------------------------------------------------------------------------

      R M S  F L U C T U A T I O N S

 NSTEP =   100000   TIME(PS) =     220.000  TEMP(K) =     4.55  PRESS =     0.0
 Etot   =        63.0522  EKtot   =        37.0757  EPtot      =        52.9036
 BOND   =         3.6879  ANGLE   =         3.2778  DIHED      =         2.7153
 1-4 NB =         0.8501  1-4 EEL =         1.6700  VDWAALS    =        57.4607
 EELEC  =        88.1785  EHBOND  =         0.0000  RESTRAINT  =         0.0000
 EKCMT  =         0.0000  VIRIAL  =         0.0000  VOLUME     =       307.1961
                                                    Density    =         0.0074
 DV/DL  =         0.5024
 ------------------------------------------------------------------------------

      A V E R A G E S   O V E R   50000 S T E P S

 NSTEP =   100000   TIME(PS) =     220.000  TEMP(K) =   296.94  PRESS =     0.0
 Etot   =    -10426.4595  EKtot   =      2420.7536  EPtot      =    -12847.2131
 BOND   =        18.1822  ANGLE   =        32.7213  DIHED      =        18.6768
 1-4 NB =         7.8969  1-4 EEL =       -75.5209  VDWAALS    =      1899.7537
 EELEC  =    -14748.9231  EHBOND  =         0.0000  RESTRAINT  =         0.0000
 EKCMT  =         0.0000  VIRIAL  =         0.0000  VOLUME     =     41299.7590
                                                    Density    =         0.9880
 DV/DL  =        -2.0102
 ------------------------------------------------------------------------------

      R M S  F L U C T U A T I O N S

 NSTEP =   100000   TIME(PS) =     220.000  TEMP(K) =     4.55  PRESS =     0.0
 Etot   =        63.0522  EKtot   =        37.0757  EPtot      =        52.9036
 BOND   =         3.6879  ANGLE   =         3.2778  DIHED      =         2.7153
 1-4 NB =         0.8501  1-4 EEL =         1.6700  VDWAALS    =        57.4607
 EELEC  =        88.1785  EHBOND  =         0.0000  RESTRAINT  =         0.0000
 EKCMT  =         0.0000  VIRIAL  =         0.0000  VOLUME     =       307.1961
                                                    Density    =         0.0074
 DV/DL  =         0.5024
 ------------------------------------------------------------------------------

      DV/DL, AVERAGES OVER   50000 STEPS

 NSTEP =   100000   TIME(PS) =     220.000  TEMP(K) =     4.55  PRESS =     0.0
 Etot   =         0.0000  EKtot   =         0.0000  EPtot      =        -1.9900
 BOND   =         0.0000  ANGLE   =         0.0000  DIHED      =         0.0000
 1-4 NB =         0.0000  1-4 EEL =         0.0000  VDWAALS    =         0.0000
 EELEC  =        -0.2296  EHBOND  =         0.0000  RESTRAINT  =         0.0000
 EKCMT  =         0.0000  VIRIAL  =         0.0000  VOLUME     =         0.0000
                                                    Density    =         0.0000
 DV/DL  =        -1.9900
 ------------------------------------------------------------------------------

      A V E R A G E S   O V E R   50000 S T E P S

 NSTEP =   500000   TIME(PS) =    1020.000  TEMP(K) =   296.75  PRESS =     0.0
 Etot   =    -10445.7309  EKtot   =      2419.2169  EPtot      =    -12864.9478
 BOND   =        17.5234  ANGLE   =        32.4886  DIHED      =        19.2290
 1-4 NB =         7.9482  1-4 EEL =       -74.9143  VDWAALS    =      1904.1808
 EELEC  =    -14771.4035  EHBOND  =         0.0000  RESTRAINT  =         0.0000
 EKCMT  =         0.0000  VIRIAL  =         0.0000  VOLUME     =     41129.0325
                                                    Density    =         0.9921
 DV/DL  =        -1.9853
 ------------------------------------------------------------------------------

      R M S  F L U C T U A T I O N S

 NSTEP =   500000   TIME(PS) =    1020.000  TEMP(K) =     4.95  PRESS =     0.0
 Etot   =        72.9862  EKtot   =        40.3758  EPtot      =        57.2348
 BOND   =         3.6297  ANGLE   =         3.2217  DIHED      =         2.6549
 1-4 NB =         0.8787  1-4 EEL =         2.1512  VDWAALS    =        57.2181
 EELEC  =        90.2190  EHBOND  =         0.0000  RESTRAINT  =         0.0000
 EKCMT  =         0.0000  VIRIAL  =         0.0000  VOLUME     =       285.4889
                                                    Density    =         0.0069
 DV/DL  =         0.5016
 ------------------------------------------------------------------------------

      A V E R A G E S   O V E R   50000 S T E P S

 NSTEP =   500000   TIME(PS) =    1020.000  TEMP(K) =   296.75  PRESS =     0.0
 Etot   =    -10445.7309  EKtot   =      2419.2169  EPtot      =    -12864.9478
 BOND   =        17.5234  ANGLE   =        32.4886  DIHED      =        19.2290
 1-4 NB =         7.9482  1-4 EEL =       -74.9143  VDWAALS    =      1904.1808
 EELEC  =    -14771.4035  EHBOND  =         0.0000  RESTRAINT  =         0.0000
 EKCMT  =         0.0000  VIRIAL  =         0.0000  VOLUME     =     41129.0325
                                                    Density    =         0.9921
 DV/DL  =        -1.9853
 ------------------------------------------------------------------------------

      R M S  F L U C T U A T I O N S

 NSTEP =   500000   TIME(PS) =    1020.000  TEMP(K) =     4.95  PRESS =     0.0
 Etot   =        72.9862  EKtot   =        40.3758  EPtot      =        57.2348
 BOND   =         3.6297  ANGLE   =         3.2217  DIHED      =         2.6549
 1-4 NB =         0.8787  1-4 EEL =         2.1512  VDWAALS    =        57.2181
 EELEC  =        90.2190  EHBOND  =         0.0000  RESTRAINT  =         0.0000
 EKCMT  =         0.0000  VIRIAL  =         0.0000  VOLUME     =       285.4889
                                                    Density    =         0.0069
 DV/DL  =         0.5016
 ------------------------------------------------------------------------------

      DV/DL, AVERAGES OVER   50000 STEPS

 NSTEP =   500000   TIME(PS) =    1020.000  TEMP(K) =     4.95  PRESS =     0.0
 Etot   =         0.0000  EKtot   =         0.0000  EPtot      =        -1.9654
 BOND   =         0.0000  ANGLE   =         0.0000  DIHED      =         0.0000
 1-4 NB =         0.0000  1-4 EEL =         0.0000  VDWAALS    =         0.0000
 EELEC  =        -0.2295  EHBOND  =         0.0000  RESTRAINT  =         0.0000
 EKCMT  =         0.0000  VIRIAL  =         0.0000  VOLUME     =         0.0000
                                                    Density    =         0.0000
 DV/DL  =        -1.9654
 ------------------------------------------------------------------------------

      A V E R A G E S   O V E R  500000 S T E P S

 NSTEP =   500000   TIME(PS) =    1020.000  TEMP(K) =   297.32  PRESS =     0.0
 Etot   =    -10420.0736  EKtot   =      2423.8933  EPtot      =    -12843.9668
 BOND   =        18.1598  ANGLE   =        32.5556  DIHED      =        19.0448
 1-4 NB =         7.9626  1-4 EEL =       -73.5839  VDWAALS    =      1898.5587
 EELEC  =    -14746.6645  EHBOND  =         0.0000  RESTRAINT  =         0.0000
 EKCMT  =         0.0000  VIRIAL  =         0.0000  VOLUME     =     41257.1451
                                                    Density    =         0.9890
 DV/DL  =        -2.0162
 ------------------------------------------------------------------------------

      R M S  F L U C T U A T I O N S

 NSTEP =   500000   TIME(PS) =    1020.000  TEMP(K) =     5.60  PRESS =     0.0
 Etot   =       112.0936  EKtot   =        45.6269  EPtot      =        84.9695
 BOND   =         3.7949  ANGLE   =         3.2620  DIHED      =         2.7761
 1-4 NB =         0.8864  1-4 EEL =         2.8006  VDWAALS    =        62.9773
 EELEC  =       127.9618  EHBOND  =         0.0000  RESTRAINT  =         0.0000
 EKCMT  =         0.0000  VIRIAL  =         0.0000  VOLUME     =       319.1159
                                                    Density    =         0.0076
 DV/DL  =         0.5106
 ------------------------------------------------------------------------------

      A V E R A G E S   O V E R  500000 S T E P S

 NSTEP =   500000   TIME(PS) =    1020.000  TEMP(K) =   297.32  PRESS =     0.0
 Etot   =    -10420.0736  EKtot   =      2423.8933  EPtot      =    -12843.9668
 BOND   =        18.1598  ANGLE   =        32.5556  DIHED      =        19.0448
 1-4 NB =         7.9626  1-4 EEL =       -73.5839  VDWAALS    =      1898.5587
 EELEC  =    -14746.6645  EHBOND  =         0.0000  RESTRAINT  =         0.0000
 EKCMT  =         0.0000  VIRIAL  =         0.0000  VOLUME     =     41257.1451
                                                    Density    =         0.9890
 DV/DL  =        -2.0162
 ------------------------------------------------------------------------------

      R M S  F L U C T U A T I O N S

 NSTEP =   500000   TIME(PS) =    1020.000  TEMP(K) =     5.60  PRESS =     0.0
 Etot   =       112.0936  EKtot   =        45.6269  EPtot      =        84.9695
 BOND   =         3.7949  ANGLE   =         3.2620  DIHED      =         2.7761
 1-4 NB =         0.8864  1-4 EEL =         2.8006  VDWAALS    =        62.9773
 EELEC  =       127.9618  EHBOND  =         0.0000  RESTRAINT  =         0.0000
 EKCMT  =         0.0000  VIRIAL  =         0.0000  VOLUME     =       319.1159
                                                    Density    =         0.0076
 DV/DL  =         0.5106
 ------------------------------------------------------------------------------

      DV/DL, AVERAGES OVER  500000 STEPS

 NSTEP =   500000   TIME(PS) =    1020.000  TEMP(K) =     5.60  PRESS =     0.0
 Etot   =         0.0000  EKtot   =         0.0000  EPtot      =        -1.9961
 BOND   =         0.0000  ANGLE   =         0.0000  DIHED      =         0.0000
 1-4 NB =         0.0000  1-4 EEL =         0.0000  VDWAALS    =         0.0000
 EELEC  =        -0.2295  EHBOND  =         0.0000  RESTRAINT  =         0.0000
 EKCMT  =         0.0000  VIRIAL  =         0.0000  VOLUME     =         0.0000
                                                    Density    =         0.0000
 DV/DL  =        -1.9961
 ------------------------------------------------------------------------------
