-------------------------------------------------------
          Amber 16 PMEMD                              2016
          -------------------------------------------------------

  [-O]verwriting output

File Assignments:

 Here is the input file:

TI/FEP, NpT, vdW+bonded transformation
 &cntrl
 ! please adjust namelist parameters to your needs!

 ! parameters for general MD
 imin = 0, nstlim = 500000, irest = 1, ntx = 5, dt = 0.002,
 ntt = 3, temp0 = 298.0, gamma_ln = 2.0, ig = -1,
 ntb = 2,
 ntp = 1, barostat = 2, pres0 = 1.01325, taup = 2.0,
 ntwe = 100, ntwx = 10000, ntpr = 1000, ntwr = 50000, ntave = 50000,
 ioutfm = 1, iwrap = 1, ntxo = 2,

 ! parameters for alchemical free energy simulation
 ntc = 2, ntf = 1,
 noshakemask = ':1,2',

 icfe = 1, ifsc = 1, clambda = 0.0479, scalpha = 0.5, scbeta = 12.0,
 ifmbar = 1, mbar_lambda = 0.0 0.0479 0.1150 0.2063 0.3160 0.4373 0.5626 0.6839
 mbar_states = 12, bar_intervall = 1000,   ! ntpr = bar_intervall for alchemica

 timask1=':1', timask2=':2',
scmask1=':1@H34',
scmask2=':2@Cl18',
 crgmask = ':1@H34 | :2@Cl18',
 /
 &ewald
 /

Note: ig = -1. Setting random seed to   490162 based on wallclock time in
      microseconds.

--------------------------------------------------------------------------------
   1.  RESOURCE   USE:
--------------------------------------------------------------------------------

 getting box info from netcdf restart file
 NATOM  =   46594 NTYPES =      28 NBONH =   43475 MBONA  =    3194
 NTHETH =    6827 MTHETA =    4353 NPHIH =   13979 MPHIA  =   13703
 NHPARM =       0 NPARM  =       0 NNB   =   87745 NRES   =   13889
 NBONA  =    3194 NTHETA =    4353 NPHIA =   13703 NUMBND =      89
 NUMANG =     195 NPTRA  =     203 NATYP =      50 NPHB   =       1
 IFBOX  =       1 NMXRS  =      43 IFCAP =       0 NEXTRA =       0
 NCOPY  =       0

     BOX TYPE: RECTILINEAR

--------------------------------------------------------------------------------
   2.  CONTROL  DATA  FOR  THE  RUN
--------------------------------------------------------------------------------

L0

General flags:
     imin    =       0, nmropt  =       0

Nature and format of input:
     ntx     =       5, irest   =       1, ntrx    =       1

Nature and format of output:
     ntxo    =       2, ntpr    =    1000, ntrx    =       1, ntwr    =   50000
     iwrap   =       1, ntwx    =   10000, ntwv    =       0, ntwe    =     100
     ioutfm  =       1, ntwprt  =       0, idecomp =       0, rbornstat=      0

Potential function:
     ntf     =       1, ntb     =       2, igb     =       0, nsnb    =      25
     ipol    =       0, gbsa    =       0, iesp    =       0
     dielc   =   1.00000, cut     =   8.00000, intdiel =   1.00000

Frozen or restrained atoms:
     ibelly  =       0, ntr     =       0

Molecular dynamics:
     nstlim  =    500000, nscm    =      1000, nrespa  =         1
     t       =   0.00000, dt      =   0.00200, vlimit  =  -1.00000

Langevin dynamics temperature regulation:
     ig      =  490162
     temp0   = 298.00000, tempi   =   0.00000, gamma_ln=   2.00000

Pressure regulation:
     ntp     =       1
     pres0   =   1.01325, comp    =  44.60000, taup    =   2.00000
     Monte-Carlo Barostat:
     mcbarint  =     100

SHAKE:
     ntc     =       2, jfastw  =       0
     tol     =   0.00001

Free energy options:
     icfe    =       1, ifsc    =       1, klambda =       1
     clambda =  0.0479, scalpha =  0.5000, scbeta  = 12.0000
     sceeorder =       2
     dynlmb =  0.0000 logdvdl =       0

FEP MBAR options:
     ifmbar  =       1,  bar_intervall =     1000
     mbar_states =      12

Ewald parameters:
     verbose =       0, ew_type =       0, nbflag  =       1, use_pme =       1
     vdwmeth =       1, eedmeth =       1, netfrc  =       1
     Box X =   87.894   Box Y =   67.207   Box Z =   78.608
     Alpha =   90.000   Beta  =   90.000   Gamma =   90.000
     NFFT1 =   96       NFFT2 =   64       NFFT3 =   80
     Cutoff=    8.000   Tol   =0.100E-04
     Ewald Coefficient =  0.34864
     Interpolation order =    4
     TI Mask 1 :1; matches     43 atoms
     TI Mask 2 :2; matches     43 atoms
     TI region 1:   46551 atoms
     TI region 2:   46551 atoms
     SC Mask 1 :1@H34; matches      1 atoms
     SC Mask 2 :2@Cl18; matches      1 atoms
Removing charge of       0.1510 from atom      43
Removing charge of      -0.0609 from atom      86
Total charge of   0.09010100 removed from       2 atoms

    MBAR - lambda values considered:
      12 total:  0.0000 0.0479 0.1150 0.2063 0.3160 0.4373 0.5626 0.6839 0.7936 0.8849 0.9520 1.0000
    Extra energies will be computed    500 times.
 Noshake mask :1,2; matches      86 atoms.

--------------------------------------------------------------------------------
   3.  ATOMIC COORDINATES AND VELOCITIES
--------------------------------------------------------------------------------

L0
 begin time read from input coords =    20.000 ps

     Molecule     1 is partially softcore
     Molecule     2 is partially softcore
 Number of triangulated 3-point waters found:    13488
   Removing shake constraints from C22   L0    1 -- H41   L0    1
   Removing shake constraints from C22   L0    1 -- H42   L0    1
   Removing shake constraints from C21   L0    1 -- H39   L0    1
   Removing shake constraints from C21   L0    1 -- H40   L0    1
   Removing shake constraints from C20   L0    1 -- H38   L0    1
   Removing shake constraints from C19   L0    1 -- H37   L0    1
   Removing shake constraints from C18   L0    1 -- H36   L0    1
   Removing shake constraints from C15   L0    1 -- H35   L0    1
   Removing shake constraints from C14   L0    1 -- H34   L0    1
   Removing shake constraints from C13   L0    1 -- H33   L0    1
   Removing shake constraints from C10   L0    1 -- H32   L0    1
   Removing shake constraints from C9    L0    1 -- H31   L0    1
   Removing shake constraints from C8    L0    1 -- H30   L0    1
   Removing shake constraints from N5    L0    1 -- H29   L0    1
   Removing shake constraints from N4    L0    1 -- H43   L0    1
   Removing shake constraints from N4    L0    1 -- H28   L0    1
   Removing shake constraints from C1    L0    1 -- H25   L0    1
   Removing shake constraints from C1    L0    1 -- H26   L0    1
   Removing shake constraints from C1    L0    1 -- H27   L0    1
   Removing shake constraints from C23   L1    2 -- H41   L1    2
   Removing shake constraints from C23   L1    2 -- H42   L1    2
   Removing shake constraints from C22   L1    2 -- H39   L1    2
   Removing shake constraints from C22   L1    2 -- H40   L1    2
   Removing shake constraints from C21   L1    2 -- H38   L1    2
   Removing shake constraints from C20   L1    2 -- H37   L1    2
   Removing shake constraints from C13   L1    2 -- H34   L1    2
   Removing shake constraints from C16   L1    2 -- H35   L1    2
   Removing shake constraints from C19   L1    2 -- H36   L1    2
   Removing shake constraints from C10   L1    2 -- H33   L1    2
   Removing shake constraints from C9    L1    2 -- H32   L1    2
   Removing shake constraints from C8    L1    2 -- H31   L1    2
   Removing shake constraints from N5    L1    2 -- H30   L1    2
   Removing shake constraints from N4    L1    2 -- H43   L1    2
   Removing shake constraints from N4    L1    2 -- H29   L1    2
   Removing shake constraints from C1    L1    2 -- H26   L1    2
   Removing shake constraints from C1    L1    2 -- H27   L1    2
   Removing shake constraints from C1    L1    2 -- H28   L1    2
 WARNING: SHAKEn bond for atoms       14       43 is partially softcore.
 Coordinates for common atoms will be synchronized from V0.
 Consider using noshake mask or disabling SHAKE.

 Number of shake restraints removed in TI region  1 :       19
 Number of shake restraints removed in TI region  2 :       18

     Sum of charges for TI region  1 =  -0.15102723
     Assuming uniform neutralizing plasma

     Sum of charges for TI region  2 =   0.06096676
     Assuming uniform neutralizing plasma

--------------------------------------------------------------------------------
   4.  RESULTS
 NSTEP =     1000   TIME(PS) =      22.000  TEMP(K) =   283.03  PRESS =     0.0
 Etot   =   -117298.5121  EKtot   =     27052.3320  EPtot      =   -144350.8441
 BOND   =      1128.9705  ANGLE   =      3009.9875  DIHED      =      4849.5972
 1-4 NB =      1433.4836  1-4 EEL =     16029.0777  VDWAALS    =     17615.5800
 EELEC  =   -188417.5406  EHBOND  =         0.0000  RESTRAINT  =         0.0000
 EKCMT  =         0.0000  VIRIAL  =         0.0000  VOLUME     =    465465.3349
                                                    Density    =         1.0236
 DV/DL  =         0.4288
 ------------------------------------------------------------------------------

      A V E R A G E S   O V E R   50000 S T E P S

 NSTEP =    50000   TIME(PS) =     120.000  TEMP(K) =   296.74  PRESS =     0.0
 Etot   =   -111568.7342  EKtot   =     28362.9565  EPtot      =   -139931.6908
 BOND   =      1186.1695  ANGLE   =      3058.2584  DIHED      =      4887.5881
 1-4 NB =      1410.9952  1-4 EEL =     15985.7623  VDWAALS    =     15726.0397
 EELEC  =   -182186.5040  EHBOND  =         0.0000  RESTRAINT  =         0.0000
 EKCMT  =         0.0000  VIRIAL  =         0.0000  VOLUME     =    463578.6830
                                                    Density    =         1.0278
 DV/DL  =         0.5877
 ------------------------------------------------------------------------------

      R M S  F L U C T U A T I O N S

 NSTEP =    50000   TIME(PS) =     120.000  TEMP(K) =    10.52  PRESS =     0.0
 Etot   =      3150.0570  EKtot   =      1005.2091  EPtot      =      2164.9493
 BOND   =        49.1272  ANGLE   =        98.7315  DIHED      =        34.3804
 1-4 NB =        16.4871  1-4 EEL =        42.1280  VDWAALS    =       884.2857
 EELEC  =      2885.0626  EHBOND  =         0.0000  RESTRAINT  =         0.0000
 EKCMT  =         0.0000  VIRIAL  =         0.0000  VOLUME     =       901.5131
                                                    Density    =         0.0020
 DV/DL  =         1.9120
 ------------------------------------------------------------------------------

      A V E R A G E S   O V E R   50000 S T E P S

 NSTEP =    50000   TIME(PS) =     120.000  TEMP(K) =   296.74  PRESS =     0.0
 Etot   =   -111568.7439  EKtot   =     28362.9469  EPtot      =   -139931.6908
 BOND   =      1186.1695  ANGLE   =      3058.2584  DIHED      =      4887.5881
 1-4 NB =      1410.9952  1-4 EEL =     15985.7623  VDWAALS    =     15726.0397
 EELEC  =   -182186.5040  EHBOND  =         0.0000  RESTRAINT  =         0.0000
 EKCMT  =         0.0000  VIRIAL  =         0.0000  VOLUME     =    463578.6830
                                                    Density    =         1.0279
 DV/DL  =         0.5877
 ------------------------------------------------------------------------------

      R M S  F L U C T U A T I O N S

 NSTEP =    50000   TIME(PS) =     120.000  TEMP(K) =    10.52  PRESS =     0.0
 Etot   =      3150.0341  EKtot   =      1005.1930  EPtot      =      2164.9493
 BOND   =        49.1272  ANGLE   =        98.7315  DIHED      =        34.3804
 1-4 NB =        16.4871  1-4 EEL =        42.1280  VDWAALS    =       884.2857
 EELEC  =      2885.0626  EHBOND  =         0.0000  RESTRAINT  =         0.0000
 EKCMT  =         0.0000  VIRIAL  =         0.0000  VOLUME     =       901.5131
                                                    Density    =         0.0020
 DV/DL  =         1.9120
 ------------------------------------------------------------------------------

      DV/DL, AVERAGES OVER   50000 STEPS

 NSTEP =    50000   TIME(PS) =     120.000  TEMP(K) =    10.52  PRESS =     0.0
 Etot   =         0.0000  EKtot   =         0.0000  EPtot      =         0.5826
 BOND   =         0.0000  ANGLE   =         0.0000  DIHED      =         0.0000
 1-4 NB =         0.0000  1-4 EEL =         0.0000  VDWAALS    =        -0.2831
 EELEC  =        -0.1933  EHBOND  =         0.0000  RESTRAINT  =         0.0000
 EKCMT  =         0.0000  VIRIAL  =         0.0000  VOLUME     =         0.0000
                                                    Density    =         0.0000
 DV/DL  =         0.5826
 ------------------------------------------------------------------------------

      A V E R A G E S   O V E R   50000 S T E P S

 NSTEP =   100000   TIME(PS) =     220.000  TEMP(K) =   298.00  PRESS =     0.0
 Etot   =   -111175.9451  EKtot   =     28482.9067  EPtot      =   -139658.8518
 BOND   =      1188.1361  ANGLE   =      3069.5936  DIHED      =      4886.6070
 1-4 NB =      1410.1660  1-4 EEL =     15966.9837  VDWAALS    =     15614.7168
 EELEC  =   -181795.0550  EHBOND  =         0.0000  RESTRAINT  =         0.0000
 EKCMT  =         0.0000  VIRIAL  =         0.0000  VOLUME     =    463035.0340
                                                    Density    =         1.0290
 DV/DL  =         0.7863
 ------------------------------------------------------------------------------

      R M S  F L U C T U A T I O N S

 NSTEP =   100000   TIME(PS) =     220.000  TEMP(K) =     1.33  PRESS =     0.0
 Etot   =       213.5324  EKtot   =       127.0597  EPtot      =       177.3930
 BOND   =        28.9592  ANGLE   =        41.2650  DIHED      =        24.2960
 1-4 NB =        15.2214  1-4 EEL =        41.3376  VDWAALS    =       183.3683
 EELEC  =       279.8157  EHBOND  =         0.0000  RESTRAINT  =         0.0000
 EKCMT  =         0.0000  VIRIAL  =         0.0000  VOLUME     =       817.5649
                                                    Density    =         0.0018
 DV/DL  =         1.8216
 ------------------------------------------------------------------------------

      A V E R A G E S   O V E R   50000 S T E P S

 NSTEP =   100000   TIME(PS) =     220.000  TEMP(K) =   298.00  PRESS =     0.0
 Etot   =   -111175.9531  EKtot   =     28482.8988  EPtot      =   -139658.8518
 BOND   =      1188.1361  ANGLE   =      3069.5936  DIHED      =      4886.6070
 1-4 NB =      1410.1660  1-4 EEL =     15966.9837  VDWAALS    =     15614.7168
 EELEC  =   -181795.0550  EHBOND  =         0.0000  RESTRAINT  =         0.0000
 EKCMT  =         0.0000  VIRIAL  =         0.0000  VOLUME     =    463035.0340
                                                    Density    =         1.0291
 DV/DL  =         0.7863
 ------------------------------------------------------------------------------

      R M S  F L U C T U A T I O N S

 NSTEP =   100000   TIME(PS) =     220.000  TEMP(K) =     1.33  PRESS =     0.0
 Etot   =       213.5938  EKtot   =       127.0939  EPtot      =       177.3930
 BOND   =        28.9592  ANGLE   =        41.2650  DIHED      =        24.2960
 1-4 NB =        15.2214  1-4 EEL =        41.3376  VDWAALS    =       183.3683
 EELEC  =       279.8157  EHBOND  =         0.0000  RESTRAINT  =         0.0000
 EKCMT  =         0.0000  VIRIAL  =         0.0000  VOLUME     =       817.5649
                                                    Density    =         0.0018
 DV/DL  =         1.8216
 ------------------------------------------------------------------------------

      DV/DL, AVERAGES OVER   50000 STEPS

 NSTEP =   100000   TIME(PS) =     220.000  TEMP(K) =     1.33  PRESS =     0.0
 Etot   =         0.0000  EKtot   =         0.0000  EPtot      =         0.7783
 BOND   =         0.0000  ANGLE   =         0.0000  DIHED      =         0.0000
 1-4 NB =         0.0000  1-4 EEL =         0.0000  VDWAALS    =        -0.2834
 EELEC  =        -0.1933  EHBOND  =         0.0000  RESTRAINT  =         0.0000
 EKCMT  =         0.0000  VIRIAL  =         0.0000  VOLUME     =         0.0000
                                                    Density    =         0.0000
 DV/DL  =         0.7783
 ------------------------------------------------------------------------------

      A V E R A G E S   O V E R   50000 S T E P S

 NSTEP =   500000   TIME(PS) =    1020.000  TEMP(K) =   298.23  PRESS =     0.0
 Etot   =   -111146.6950  EKtot   =     28505.3153  EPtot      =   -139652.0103
 BOND   =      1191.2629  ANGLE   =      3070.7312  DIHED      =      4879.3761
 1-4 NB =      1407.9081  1-4 EEL =     15935.8092  VDWAALS    =     15605.1544
 EELEC  =   -181742.2523  EHBOND  =         0.0000  RESTRAINT  =         0.0000
 EKCMT  =         0.0000  VIRIAL  =         0.0000  VOLUME     =    462616.6534
                                                    Density    =         1.0299
 DV/DL  =         1.5140
 ------------------------------------------------------------------------------

      R M S  F L U C T U A T I O N S

 NSTEP =   500000   TIME(PS) =    1020.000  TEMP(K) =     1.33  PRESS =     0.0
 Etot   =       205.2773  EKtot   =       127.1250  EPtot      =       167.7975
 BOND   =        28.5542  ANGLE   =        41.8410  DIHED      =        23.3125
 1-4 NB =        15.2927  1-4 EEL =        42.5730  VDWAALS    =       183.0640
 EELEC  =       272.4435  EHBOND  =         0.0000  RESTRAINT  =         0.0000
 EKCMT  =         0.0000  VIRIAL  =         0.0000  VOLUME     =       778.7650
                                                    Density    =         0.0017
 DV/DL  =         2.0261
 ------------------------------------------------------------------------------

      A V E R A G E S   O V E R   50000 S T E P S

 NSTEP =   500000   TIME(PS) =    1020.000  TEMP(K) =   298.23  PRESS =     0.0
 Etot   =   -111146.7484  EKtot   =     28505.2619  EPtot      =   -139652.0103
 BOND   =      1191.2629  ANGLE   =      3070.7312  DIHED      =      4879.3761
 1-4 NB =      1407.9081  1-4 EEL =     15935.8092  VDWAALS    =     15605.1544
 EELEC  =   -181742.2523  EHBOND  =         0.0000  RESTRAINT  =         0.0000
 EKCMT  =         0.0000  VIRIAL  =         0.0000  VOLUME     =    462616.6534
                                                    Density    =         1.0300
 DV/DL  =         1.5140
 ------------------------------------------------------------------------------

      R M S  F L U C T U A T I O N S

 NSTEP =   500000   TIME(PS) =    1020.000  TEMP(K) =     1.33  PRESS =     0.0
 Etot   =       205.2810  EKtot   =       127.1407  EPtot      =       167.7975
 BOND   =        28.5542  ANGLE   =        41.8410  DIHED      =        23.3125
 1-4 NB =        15.2927  1-4 EEL =        42.5730  VDWAALS    =       183.0640
 EELEC  =       272.4435  EHBOND  =         0.0000  RESTRAINT  =         0.0000
 EKCMT  =         0.0000  VIRIAL  =         0.0000  VOLUME     =       778.7650
                                                    Density    =         0.0017
 DV/DL  =         2.0261
 ------------------------------------------------------------------------------

      DV/DL, AVERAGES OVER   50000 STEPS

 NSTEP =   500000   TIME(PS) =    1020.000  TEMP(K) =     1.33  PRESS =     0.0
 Etot   =         0.0000  EKtot   =         0.0000  EPtot      =         1.5006
 BOND   =         0.0000  ANGLE   =         0.0000  DIHED      =         0.0000
 1-4 NB =         0.0000  1-4 EEL =         0.0000  VDWAALS    =        -0.2836
 EELEC  =        -0.1933  EHBOND  =         0.0000  RESTRAINT  =         0.0000
 EKCMT  =         0.0000  VIRIAL  =         0.0000  VOLUME     =         0.0000
                                                    Density    =         0.0000
 DV/DL  =         1.5006
 ------------------------------------------------------------------------------

      A V E R A G E S   O V E R  500000 S T E P S

 NSTEP =   500000   TIME(PS) =    1020.000  TEMP(K) =   297.92  PRESS =     0.0
 Etot   =   -111232.6215  EKtot   =     28475.3138  EPtot      =   -139707.9353
 BOND   =      1188.7284  ANGLE   =      3066.6848  DIHED      =      4880.8203
 1-4 NB =      1408.7647  1-4 EEL =     15961.0010  VDWAALS    =     15621.5134
 EELEC  =   -181835.4479  EHBOND  =         0.0000  RESTRAINT  =         0.0000
 EKCMT  =         0.0000  VIRIAL  =         0.0000  VOLUME     =    462814.3798
                                                    Density    =         1.0295
 DV/DL  =         1.1389
 ------------------------------------------------------------------------------

      R M S  F L U C T U A T I O N S

 NSTEP =   500000   TIME(PS) =    1020.000  TEMP(K) =     3.59  PRESS =     0.0
 Etot   =      1024.5687  EKtot   =       342.8784  EPtot      =       710.1158
 BOND   =        31.6400  ANGLE   =        50.9866  DIHED      =        25.5975
 1-4 NB =        15.5280  1-4 EEL =        45.0132  VDWAALS    =       330.3509
 EELEC  =       958.0184  EHBOND  =         0.0000  RESTRAINT  =         0.0000
 EKCMT  =         0.0000  VIRIAL  =         0.0000  VOLUME     =       960.8115
                                                    Density    =         0.0021
 DV/DL  =         1.9409
 ------------------------------------------------------------------------------

      A V E R A G E S   O V E R  500000 S T E P S

 NSTEP =   500000   TIME(PS) =    1020.000  TEMP(K) =   297.92  PRESS =     0.0
 Etot   =   -111232.6350  EKtot   =     28475.3003  EPtot      =   -139707.9353
 BOND   =      1188.7284  ANGLE   =      3066.6848  DIHED      =      4880.8203
 1-4 NB =      1408.7647  1-4 EEL =     15961.0010  VDWAALS    =     15621.5134
 EELEC  =   -181835.4479  EHBOND  =         0.0000  RESTRAINT  =         0.0000
 EKCMT  =         0.0000  VIRIAL  =         0.0000  VOLUME     =    462814.3798
                                                    Density    =         1.0296
 DV/DL  =         1.1389
 ------------------------------------------------------------------------------

      R M S  F L U C T U A T I O N S

 NSTEP =   500000   TIME(PS) =    1020.000  TEMP(K) =     3.59  PRESS =     0.0
 Etot   =      1024.5609  EKtot   =       342.8730  EPtot      =       710.1158
 BOND   =        31.6400  ANGLE   =        50.9866  DIHED      =        25.5975
 1-4 NB =        15.5280  1-4 EEL =        45.0132  VDWAALS    =       330.3509
 EELEC  =       958.0184  EHBOND  =         0.0000  RESTRAINT  =         0.0000
 EKCMT  =         0.0000  VIRIAL  =         0.0000  VOLUME     =       960.8115
                                                    Density    =         0.0021
 DV/DL  =         1.9409
 ------------------------------------------------------------------------------

      DV/DL, AVERAGES OVER  500000 STEPS

 NSTEP =   500000   TIME(PS) =    1020.000  TEMP(K) =     3.59  PRESS =     0.0
 Etot   =         0.0000  EKtot   =         0.0000  EPtot      =         1.1277
 BOND   =         0.0000  ANGLE   =         0.0000  DIHED      =         0.0000
 1-4 NB =         0.0000  1-4 EEL =         0.0000  VDWAALS    =        -0.2835
 EELEC  =        -0.1933  EHBOND  =         0.0000  RESTRAINT  =         0.0000
 EKCMT  =         0.0000  VIRIAL  =         0.0000  VOLUME     =         0.0000
                                                    Density    =         0.0000
 DV/DL  =         1.1277
 ------------------------------------------------------------------------------
