-------------------------------------------------------
          Amber 16 PMEMD                              2016
          -------------------------------------------------------

  [-O]verwriting output

File Assignments:

 Here is the input file:

TI/FEP, NpT, vdW+bonded transformation
 &cntrl
 ! please adjust namelist parameters to your needs!

 ! parameters for general MD
 imin = 0, nstlim = 500000, irest = 1, ntx = 5, dt = 0.002,
 ntt = 3, temp0 = 298.0, gamma_ln = 2.0, ig = -1,
 ntb = 2,
 ntp = 1, barostat = 2, pres0 = 1.01325, taup = 2.0,
 ntwe = 100, ntwx = 10000, ntpr = 1000, ntwr = 50000, ntave = 50000,
 ioutfm = 1, iwrap = 1, ntxo = 2,

 ! parameters for alchemical free energy simulation
 ntc = 2, ntf = 1,
 noshakemask = ':1,2',

 icfe = 1, ifsc = 1, clambda = 0.4373, scalpha = 0.5, scbeta = 12.0,
 ifmbar = 1, mbar_lambda = 0.0 0.0479 0.1150 0.2063 0.3160 0.4373 0.5626 0.6839
 mbar_states = 12, bar_intervall = 1000,   ! ntpr = bar_intervall for alchemica

 timask1=':1', timask2=':2',
scmask1=':1@H34',
scmask2=':2@Cl18',
 crgmask = ':1@H34 | :2@Cl18',
 /
 &ewald
 /

Note: ig = -1. Setting random seed to   979619 based on wallclock time in
      microseconds.

--------------------------------------------------------------------------------
   1.  RESOURCE   USE:
--------------------------------------------------------------------------------

 getting box info from netcdf restart file
 NATOM  =   46594 NTYPES =      28 NBONH =   43475 MBONA  =    3194
 NTHETH =    6827 MTHETA =    4353 NPHIH =   13979 MPHIA  =   13703
 NHPARM =       0 NPARM  =       0 NNB   =   87745 NRES   =   13889
 NBONA  =    3194 NTHETA =    4353 NPHIA =   13703 NUMBND =      89
 NUMANG =     195 NPTRA  =     203 NATYP =      50 NPHB   =       1
 IFBOX  =       1 NMXRS  =      43 IFCAP =       0 NEXTRA =       0
 NCOPY  =       0

     BOX TYPE: RECTILINEAR

--------------------------------------------------------------------------------
   2.  CONTROL  DATA  FOR  THE  RUN
--------------------------------------------------------------------------------

L0

General flags:
     imin    =       0, nmropt  =       0

Nature and format of input:
     ntx     =       5, irest   =       1, ntrx    =       1

Nature and format of output:
     ntxo    =       2, ntpr    =    1000, ntrx    =       1, ntwr    =   50000
     iwrap   =       1, ntwx    =   10000, ntwv    =       0, ntwe    =     100
     ioutfm  =       1, ntwprt  =       0, idecomp =       0, rbornstat=      0

Potential function:
     ntf     =       1, ntb     =       2, igb     =       0, nsnb    =      25
     ipol    =       0, gbsa    =       0, iesp    =       0
     dielc   =   1.00000, cut     =   8.00000, intdiel =   1.00000

Frozen or restrained atoms:
     ibelly  =       0, ntr     =       0

Molecular dynamics:
     nstlim  =    500000, nscm    =      1000, nrespa  =         1
     t       =   0.00000, dt      =   0.00200, vlimit  =  -1.00000

Langevin dynamics temperature regulation:
     ig      =  979619
     temp0   = 298.00000, tempi   =   0.00000, gamma_ln=   2.00000

Pressure regulation:
     ntp     =       1
     pres0   =   1.01325, comp    =  44.60000, taup    =   2.00000
     Monte-Carlo Barostat:
     mcbarint  =     100

SHAKE:
     ntc     =       2, jfastw  =       0
     tol     =   0.00001

Free energy options:
     icfe    =       1, ifsc    =       1, klambda =       1
     clambda =  0.4373, scalpha =  0.5000, scbeta  = 12.0000
     sceeorder =       2
     dynlmb =  0.0000 logdvdl =       0

FEP MBAR options:
     ifmbar  =       1,  bar_intervall =     1000
     mbar_states =      12

Ewald parameters:
     verbose =       0, ew_type =       0, nbflag  =       1, use_pme =       1
     vdwmeth =       1, eedmeth =       1, netfrc  =       1
     Box X =   87.894   Box Y =   67.207   Box Z =   78.608
     Alpha =   90.000   Beta  =   90.000   Gamma =   90.000
     NFFT1 =   96       NFFT2 =   64       NFFT3 =   80
     Cutoff=    8.000   Tol   =0.100E-04
     Ewald Coefficient =  0.34864
     Interpolation order =    4
     TI Mask 1 :1; matches     43 atoms
     TI Mask 2 :2; matches     43 atoms
     TI region 1:   46551 atoms
     TI region 2:   46551 atoms
     SC Mask 1 :1@H34; matches      1 atoms
     SC Mask 2 :2@Cl18; matches      1 atoms
Removing charge of       0.1510 from atom      43
Removing charge of      -0.0609 from atom      86
Total charge of   0.09010100 removed from       2 atoms

    MBAR - lambda values considered:
      12 total:  0.0000 0.0479 0.1150 0.2063 0.3160 0.4373 0.5626 0.6839 0.7936 0.8849 0.9520 1.0000
    Extra energies will be computed    500 times.
 Noshake mask :1,2; matches      86 atoms.

--------------------------------------------------------------------------------
   3.  ATOMIC COORDINATES AND VELOCITIES
--------------------------------------------------------------------------------

L0
 begin time read from input coords =    20.000 ps

     Molecule     1 is partially softcore
     Molecule     2 is partially softcore
 Number of triangulated 3-point waters found:    13488
   Removing shake constraints from C22   L0    1 -- H41   L0    1
   Removing shake constraints from C22   L0    1 -- H42   L0    1
   Removing shake constraints from C21   L0    1 -- H39   L0    1
   Removing shake constraints from C21   L0    1 -- H40   L0    1
   Removing shake constraints from C20   L0    1 -- H38   L0    1
   Removing shake constraints from C19   L0    1 -- H37   L0    1
   Removing shake constraints from C18   L0    1 -- H36   L0    1
   Removing shake constraints from C15   L0    1 -- H35   L0    1
   Removing shake constraints from C14   L0    1 -- H34   L0    1
   Removing shake constraints from C13   L0    1 -- H33   L0    1
   Removing shake constraints from C10   L0    1 -- H32   L0    1
   Removing shake constraints from C9    L0    1 -- H31   L0    1
   Removing shake constraints from C8    L0    1 -- H30   L0    1
   Removing shake constraints from N5    L0    1 -- H29   L0    1
   Removing shake constraints from N4    L0    1 -- H43   L0    1
   Removing shake constraints from N4    L0    1 -- H28   L0    1
   Removing shake constraints from C1    L0    1 -- H25   L0    1
   Removing shake constraints from C1    L0    1 -- H26   L0    1
   Removing shake constraints from C1    L0    1 -- H27   L0    1
   Removing shake constraints from C23   L1    2 -- H41   L1    2
   Removing shake constraints from C23   L1    2 -- H42   L1    2
   Removing shake constraints from C22   L1    2 -- H39   L1    2
   Removing shake constraints from C22   L1    2 -- H40   L1    2
   Removing shake constraints from C21   L1    2 -- H38   L1    2
   Removing shake constraints from C20   L1    2 -- H37   L1    2
   Removing shake constraints from C13   L1    2 -- H34   L1    2
   Removing shake constraints from C16   L1    2 -- H35   L1    2
   Removing shake constraints from C19   L1    2 -- H36   L1    2
   Removing shake constraints from C10   L1    2 -- H33   L1    2
   Removing shake constraints from C9    L1    2 -- H32   L1    2
   Removing shake constraints from C8    L1    2 -- H31   L1    2
   Removing shake constraints from N5    L1    2 -- H30   L1    2
   Removing shake constraints from N4    L1    2 -- H43   L1    2
   Removing shake constraints from N4    L1    2 -- H29   L1    2
   Removing shake constraints from C1    L1    2 -- H26   L1    2
   Removing shake constraints from C1    L1    2 -- H27   L1    2
   Removing shake constraints from C1    L1    2 -- H28   L1    2
 WARNING: SHAKEn bond for atoms       14       43 is partially softcore.
 Coordinates for common atoms will be synchronized from V0.
 Consider using noshake mask or disabling SHAKE.

 Number of shake restraints removed in TI region  1 :       19
 Number of shake restraints removed in TI region  2 :       18

     Sum of charges for TI region  1 =  -0.15102723
     Assuming uniform neutralizing plasma

     Sum of charges for TI region  2 =   0.06096676
     Assuming uniform neutralizing plasma

--------------------------------------------------------------------------------
   4.  RESULTS
 NSTEP =     1000   TIME(PS) =      22.000  TEMP(K) =   284.39  PRESS =     0.0
 Etot   =   -116618.4194  EKtot   =     27182.6055  EPtot      =   -143801.0249
 BOND   =      1185.9965  ANGLE   =      3038.2378  DIHED      =      4852.9472
 1-4 NB =      1399.7989  1-4 EEL =     15961.0928  VDWAALS    =     17187.7878
 EELEC  =   -187426.8859  EHBOND  =         0.0000  RESTRAINT  =         0.0000
 EKCMT  =         0.0000  VIRIAL  =         0.0000  VOLUME     =    464805.7669
                                                    Density    =         1.0250
 DV/DL  =         2.3178
 ------------------------------------------------------------------------------

      A V E R A G E S   O V E R   50000 S T E P S

 NSTEP =    50000   TIME(PS) =     120.000  TEMP(K) =   296.89  PRESS =     0.0
 Etot   =   -111544.4432  EKtot   =     28376.6664  EPtot      =   -139921.1096
 BOND   =      1185.3223  ANGLE   =      3064.4943  DIHED      =      4894.8071
 1-4 NB =      1409.9697  1-4 EEL =     15990.2456  VDWAALS    =     15721.9693
 EELEC  =   -182187.9179  EHBOND  =         0.0000  RESTRAINT  =         0.0000
 EKCMT  =         0.0000  VIRIAL  =         0.0000  VOLUME     =    463249.8853
                                                    Density    =         1.0285
 DV/DL  =         3.9578
 ------------------------------------------------------------------------------

      R M S  F L U C T U A T I O N S

 NSTEP =    50000   TIME(PS) =     120.000  TEMP(K) =    10.40  PRESS =     0.0
 Etot   =      3093.9322  EKtot   =       993.9633  EPtot      =      2119.4942
 BOND   =        48.5651  ANGLE   =        98.2069  DIHED      =        34.3469
 1-4 NB =        16.6756  1-4 EEL =        41.0817  VDWAALS    =       862.4088
 EELEC  =      2815.0719  EHBOND  =         0.0000  RESTRAINT  =         0.0000
 EKCMT  =         0.0000  VIRIAL  =         0.0000  VOLUME     =       964.7313
                                                    Density    =         0.0021
 DV/DL  =         4.2831
 ------------------------------------------------------------------------------

      A V E R A G E S   O V E R   50000 S T E P S

 NSTEP =    50000   TIME(PS) =     120.000  TEMP(K) =   296.89  PRESS =     0.0
 Etot   =   -111544.4584  EKtot   =     28376.6513  EPtot      =   -139921.1096
 BOND   =      1185.3223  ANGLE   =      3064.4943  DIHED      =      4894.8071
 1-4 NB =      1409.9697  1-4 EEL =     15990.2456  VDWAALS    =     15721.9693
 EELEC  =   -182187.9179  EHBOND  =         0.0000  RESTRAINT  =         0.0000
 EKCMT  =         0.0000  VIRIAL  =         0.0000  VOLUME     =    463249.8853
                                                    Density    =         1.0286
 DV/DL  =         3.9578
 ------------------------------------------------------------------------------

      R M S  F L U C T U A T I O N S

 NSTEP =    50000   TIME(PS) =     120.000  TEMP(K) =    10.40  PRESS =     0.0
 Etot   =      3093.8976  EKtot   =       993.9312  EPtot      =      2119.4942
 BOND   =        48.5651  ANGLE   =        98.2069  DIHED      =        34.3469
 1-4 NB =        16.6756  1-4 EEL =        41.0817  VDWAALS    =       862.4088
 EELEC  =      2815.0719  EHBOND  =         0.0000  RESTRAINT  =         0.0000
 EKCMT  =         0.0000  VIRIAL  =         0.0000  VOLUME     =       964.7313
                                                    Density    =         0.0021
 DV/DL  =         4.2831
 ------------------------------------------------------------------------------

      DV/DL, AVERAGES OVER   50000 STEPS

 NSTEP =    50000   TIME(PS) =     120.000  TEMP(K) =    10.40  PRESS =     0.0
 Etot   =         0.0000  EKtot   =         0.0000  EPtot      =         3.9179
 BOND   =         0.0000  ANGLE   =         0.0000  DIHED      =         0.0000
 1-4 NB =         0.0000  1-4 EEL =         0.0000  VDWAALS    =        -0.2833
 EELEC  =        -0.1933  EHBOND  =         0.0000  RESTRAINT  =         0.0000
 EKCMT  =         0.0000  VIRIAL  =         0.0000  VOLUME     =         0.0000
                                                    Density    =         0.0000
 DV/DL  =         3.9179
 ------------------------------------------------------------------------------

      A V E R A G E S   O V E R   50000 S T E P S

 NSTEP =   100000   TIME(PS) =     220.000  TEMP(K) =   298.13  PRESS =     0.0
 Etot   =   -111189.0436  EKtot   =     28495.3834  EPtot      =   -139684.4270
 BOND   =      1188.1586  ANGLE   =      3068.3544  DIHED      =      4902.7207
 1-4 NB =      1410.2097  1-4 EEL =     15997.2137  VDWAALS    =     15632.9723
 EELEC  =   -181884.0563  EHBOND  =         0.0000  RESTRAINT  =         0.0000
 EKCMT  =         0.0000  VIRIAL  =         0.0000  VOLUME     =    462339.9003
                                                    Density    =         1.0305
 DV/DL  =         2.6271
 ------------------------------------------------------------------------------

      R M S  F L U C T U A T I O N S

 NSTEP =   100000   TIME(PS) =     220.000  TEMP(K) =     1.38  PRESS =     0.0
 Etot   =       223.8969  EKtot   =       132.3133  EPtot      =       180.7079
 BOND   =        28.8699  ANGLE   =        42.2688  DIHED      =        23.7130
 1-4 NB =        15.4648  1-4 EEL =        42.1598  VDWAALS    =       176.4450
 EELEC  =       271.8805  EHBOND  =         0.0000  RESTRAINT  =         0.0000
 EKCMT  =         0.0000  VIRIAL  =         0.0000  VOLUME     =      1087.8014
                                                    Density    =         0.0024
 DV/DL  =         3.4625
 ------------------------------------------------------------------------------

      A V E R A G E S   O V E R   50000 S T E P S

 NSTEP =   100000   TIME(PS) =     220.000  TEMP(K) =   298.13  PRESS =     0.0
 Etot   =   -111189.0616  EKtot   =     28495.3654  EPtot      =   -139684.4270
 BOND   =      1188.1586  ANGLE   =      3068.3544  DIHED      =      4902.7207
 1-4 NB =      1410.2097  1-4 EEL =     15997.2137  VDWAALS    =     15632.9723
 EELEC  =   -181884.0563  EHBOND  =         0.0000  RESTRAINT  =         0.0000
 EKCMT  =         0.0000  VIRIAL  =         0.0000  VOLUME     =    462339.9003
                                                    Density    =         1.0306
 DV/DL  =         2.6271
 ------------------------------------------------------------------------------

      R M S  F L U C T U A T I O N S

 NSTEP =   100000   TIME(PS) =     220.000  TEMP(K) =     1.38  PRESS =     0.0
 Etot   =       223.9895  EKtot   =       132.3528  EPtot      =       180.7079
 BOND   =        28.8699  ANGLE   =        42.2688  DIHED      =        23.7130
 1-4 NB =        15.4648  1-4 EEL =        42.1598  VDWAALS    =       176.4450
 EELEC  =       271.8805  EHBOND  =         0.0000  RESTRAINT  =         0.0000
 EKCMT  =         0.0000  VIRIAL  =         0.0000  VOLUME     =      1087.8014
                                                    Density    =         0.0024
 DV/DL  =         3.4625
 ------------------------------------------------------------------------------

      DV/DL, AVERAGES OVER   50000 STEPS

 NSTEP =   100000   TIME(PS) =     220.000  TEMP(K) =     1.38  PRESS =     0.0
 Etot   =         0.0000  EKtot   =         0.0000  EPtot      =         2.6011
 BOND   =         0.0000  ANGLE   =         0.0000  DIHED      =         0.0000
 1-4 NB =         0.0000  1-4 EEL =         0.0000  VDWAALS    =        -0.2838
 EELEC  =        -0.1933  EHBOND  =         0.0000  RESTRAINT  =         0.0000
 EKCMT  =         0.0000  VIRIAL  =         0.0000  VOLUME     =         0.0000
                                                    Density    =         0.0000
 DV/DL  =         2.6011
 ------------------------------------------------------------------------------

      A V E R A G E S   O V E R   50000 S T E P S

 NSTEP =   500000   TIME(PS) =    1020.000  TEMP(K) =   298.10  PRESS =     0.0
 Etot   =   -111203.6011  EKtot   =     28492.2017  EPtot      =   -139695.8028
 BOND   =      1186.3324  ANGLE   =      3066.2191  DIHED      =      4915.6861
 1-4 NB =      1407.9809  1-4 EEL =     16019.0628  VDWAALS    =     15607.1034
 EELEC  =   -181898.1875  EHBOND  =         0.0000  RESTRAINT  =         0.0000
 EKCMT  =         0.0000  VIRIAL  =         0.0000  VOLUME     =    462162.9940
                                                    Density    =         1.0309
 DV/DL  =         3.1525
 ------------------------------------------------------------------------------

      R M S  F L U C T U A T I O N S

 NSTEP =   500000   TIME(PS) =    1020.000  TEMP(K) =     1.33  PRESS =     0.0
 Etot   =       197.3731  EKtot   =       126.9217  EPtot      =       162.0963
 BOND   =        28.7962  ANGLE   =        42.2093  DIHED      =        24.8636
 1-4 NB =        15.2849  1-4 EEL =        42.2827  VDWAALS    =       181.7758
 EELEC  =       265.1331  EHBOND  =         0.0000  RESTRAINT  =         0.0000
 EKCMT  =         0.0000  VIRIAL  =         0.0000  VOLUME     =       574.3612
                                                    Density    =         0.0013
 DV/DL  =         4.0855
 ------------------------------------------------------------------------------

      A V E R A G E S   O V E R   50000 S T E P S

 NSTEP =   500000   TIME(PS) =    1020.000  TEMP(K) =   298.10  PRESS =     0.0
 Etot   =   -111203.5693  EKtot   =     28492.2335  EPtot      =   -139695.8028
 BOND   =      1186.3324  ANGLE   =      3066.2191  DIHED      =      4915.6861
 1-4 NB =      1407.9809  1-4 EEL =     16019.0628  VDWAALS    =     15607.1034
 EELEC  =   -181898.1875  EHBOND  =         0.0000  RESTRAINT  =         0.0000
 EKCMT  =         0.0000  VIRIAL  =         0.0000  VOLUME     =    462162.9940
                                                    Density    =         1.0310
 DV/DL  =         3.1525
 ------------------------------------------------------------------------------

      R M S  F L U C T U A T I O N S

 NSTEP =   500000   TIME(PS) =    1020.000  TEMP(K) =     1.33  PRESS =     0.0
 Etot   =       197.3833  EKtot   =       126.9214  EPtot      =       162.0963
 BOND   =        28.7962  ANGLE   =        42.2093  DIHED      =        24.8636
 1-4 NB =        15.2849  1-4 EEL =        42.2827  VDWAALS    =       181.7758
 EELEC  =       265.1331  EHBOND  =         0.0000  RESTRAINT  =         0.0000
 EKCMT  =         0.0000  VIRIAL  =         0.0000  VOLUME     =       574.3612
                                                    Density    =         0.0013
 DV/DL  =         4.0855
 ------------------------------------------------------------------------------

      DV/DL, AVERAGES OVER   50000 STEPS

 NSTEP =   500000   TIME(PS) =    1020.000  TEMP(K) =     1.33  PRESS =     0.0
 Etot   =         0.0000  EKtot   =         0.0000  EPtot      =         3.1215
 BOND   =         0.0000  ANGLE   =         0.0000  DIHED      =         0.0000
 1-4 NB =         0.0000  1-4 EEL =         0.0000  VDWAALS    =        -0.2839
 EELEC  =        -0.1933  EHBOND  =         0.0000  RESTRAINT  =         0.0000
 EKCMT  =         0.0000  VIRIAL  =         0.0000  VOLUME     =         0.0000
                                                    Density    =         0.0000
 DV/DL  =         3.1215
 ------------------------------------------------------------------------------

      A V E R A G E S   O V E R  500000 S T E P S

 NSTEP =   500000   TIME(PS) =    1020.000  TEMP(K) =   297.92  PRESS =     0.0
 Etot   =   -111233.6704  EKtot   =     28475.7976  EPtot      =   -139709.4679
 BOND   =      1187.9344  ANGLE   =      3067.6253  DIHED      =      4902.0403
 1-4 NB =      1411.4359  1-4 EEL =     16014.8738  VDWAALS    =     15617.6145
 EELEC  =   -181910.9921  EHBOND  =         0.0000  RESTRAINT  =         0.0000
 EKCMT  =         0.0000  VIRIAL  =         0.0000  VOLUME     =    462571.4916
                                                    Density    =         1.0300
 DV/DL  =         3.0938
 ------------------------------------------------------------------------------

      R M S  F L U C T U A T I O N S

 NSTEP =   500000   TIME(PS) =    1020.000  TEMP(K) =     3.55  PRESS =     0.0
 Etot   =      1006.5317  EKtot   =       338.8731  EPtot      =       696.6760
 BOND   =        31.5397  ANGLE   =        50.9442  DIHED      =        26.1010
 1-4 NB =        15.7317  1-4 EEL =        46.9802  VDWAALS    =       325.6919
 EELEC  =       937.1178  EHBOND  =         0.0000  RESTRAINT  =         0.0000
 EKCMT  =         0.0000  VIRIAL  =         0.0000  VOLUME     =      1025.6311
                                                    Density    =         0.0023
 DV/DL  =         3.9678
 ------------------------------------------------------------------------------

      A V E R A G E S   O V E R  500000 S T E P S

 NSTEP =   500000   TIME(PS) =    1020.000  TEMP(K) =   297.92  PRESS =     0.0
 Etot   =   -111233.6502  EKtot   =     28475.8177  EPtot      =   -139709.4679
 BOND   =      1187.9344  ANGLE   =      3067.6253  DIHED      =      4902.0403
 1-4 NB =      1411.4359  1-4 EEL =     16014.8738  VDWAALS    =     15617.6145
 EELEC  =   -181910.9921  EHBOND  =         0.0000  RESTRAINT  =         0.0000
 EKCMT  =         0.0000  VIRIAL  =         0.0000  VOLUME     =    462571.4916
                                                    Density    =         1.0301
 DV/DL  =         3.0938
 ------------------------------------------------------------------------------

      R M S  F L U C T U A T I O N S

 NSTEP =   500000   TIME(PS) =    1020.000  TEMP(K) =     3.55  PRESS =     0.0
 Etot   =      1006.5258  EKtot   =       338.8671  EPtot      =       696.6760
 BOND   =        31.5397  ANGLE   =        50.9442  DIHED      =        26.1010
 1-4 NB =        15.7317  1-4 EEL =        46.9802  VDWAALS    =       325.6919
 EELEC  =       937.1178  EHBOND  =         0.0000  RESTRAINT  =         0.0000
 EKCMT  =         0.0000  VIRIAL  =         0.0000  VOLUME     =      1025.6311
                                                    Density    =         0.0023
 DV/DL  =         3.9678
 ------------------------------------------------------------------------------

      DV/DL, AVERAGES OVER  500000 STEPS

 NSTEP =   500000   TIME(PS) =    1020.000  TEMP(K) =     3.55  PRESS =     0.0
 Etot   =         0.0000  EKtot   =         0.0000  EPtot      =         3.0628
 BOND   =         0.0000  ANGLE   =         0.0000  DIHED      =         0.0000
 1-4 NB =         0.0000  1-4 EEL =         0.0000  VDWAALS    =        -0.2837
 EELEC  =        -0.1933  EHBOND  =         0.0000  RESTRAINT  =         0.0000
 EKCMT  =         0.0000  VIRIAL  =         0.0000  VOLUME     =         0.0000
                                                    Density    =         0.0000
 DV/DL  =         3.0628
 ------------------------------------------------------------------------------
