-------------------------------------------------------
          Amber 16 PMEMD                              2016
          -------------------------------------------------------

  [-O]verwriting output

File Assignments:

 Here is the input file:

TI/FEP, NpT, vdW+bonded transformation
 &cntrl
 ! please adjust namelist parameters to your needs!

 ! parameters for general MD
 imin = 0, nstlim = 500000, irest = 1, ntx = 5, dt = 0.002,
 ntt = 3, temp0 = 298.0, gamma_ln = 2.0, ig = -1,
 ntb = 2,
 ntp = 1, barostat = 2, pres0 = 1.01325, taup = 2.0,
 ntwe = 100, ntwx = 10000, ntpr = 1000, ntwr = 50000, ntave = 50000,
 ioutfm = 1, iwrap = 1, ntxo = 2,

 ! parameters for alchemical free energy simulation
 ntc = 2, ntf = 1,
 noshakemask = ':1,2',

 icfe = 1, ifsc = 1, clambda = 0.8849, scalpha = 0.5, scbeta = 12.0,
 ifmbar = 1, mbar_lambda = 0.0 0.0479 0.1150 0.2063 0.3160 0.4373 0.5626 0.6839
 mbar_states = 12, bar_intervall = 1000,   ! ntpr = bar_intervall for alchemica

 timask1=':1', timask2=':2',
scmask1=':1@H34',
scmask2=':2@Cl18',
 crgmask = ':1@H34 | :2@Cl18',
 /
 &ewald
 /

Note: ig = -1. Setting random seed to    93471 based on wallclock time in
      microseconds.

--------------------------------------------------------------------------------
   1.  RESOURCE   USE:
--------------------------------------------------------------------------------

 getting box info from netcdf restart file
 NATOM  =    4115 NTYPES =      13 NBONH =    4066 MBONA  =      55
 NTHETH =      78 MTHETA =      84 NPHIH =     153 MPHIA  =     133
 NHPARM =       0 NPARM  =       0 NNB   =    5842 NRES   =    1345
 NBONA  =      55 NTHETA =      84 NPHIA =     133 NUMBND =      22
 NUMANG =      35 NPTRA  =      14 NATYP =      17 NPHB   =       1
 IFBOX  =       1 NMXRS  =      43 IFCAP =       0 NEXTRA =       0
 NCOPY  =       0

     BOX TYPE: RECTILINEAR

--------------------------------------------------------------------------------
   2.  CONTROL  DATA  FOR  THE  RUN
--------------------------------------------------------------------------------

L0

General flags:
     imin    =       0, nmropt  =       0

Nature and format of input:
     ntx     =       5, irest   =       1, ntrx    =       1

Nature and format of output:
     ntxo    =       2, ntpr    =    1000, ntrx    =       1, ntwr    =   50000
     iwrap   =       1, ntwx    =   10000, ntwv    =       0, ntwe    =     100
     ioutfm  =       1, ntwprt  =       0, idecomp =       0, rbornstat=      0

Potential function:
     ntf     =       1, ntb     =       2, igb     =       0, nsnb    =      25
     ipol    =       0, gbsa    =       0, iesp    =       0
     dielc   =   1.00000, cut     =   8.00000, intdiel =   1.00000

Frozen or restrained atoms:
     ibelly  =       0, ntr     =       0

Molecular dynamics:
     nstlim  =    500000, nscm    =      1000, nrespa  =         1
     t       =   0.00000, dt      =   0.00200, vlimit  =  -1.00000

Langevin dynamics temperature regulation:
     ig      =   93471
     temp0   = 298.00000, tempi   =   0.00000, gamma_ln=   2.00000

Pressure regulation:
     ntp     =       1
     pres0   =   1.01325, comp    =  44.60000, taup    =   2.00000
     Monte-Carlo Barostat:
     mcbarint  =     100

SHAKE:
     ntc     =       2, jfastw  =       0
     tol     =   0.00001

Free energy options:
     icfe    =       1, ifsc    =       1, klambda =       1
     clambda =  0.8849, scalpha =  0.5000, scbeta  = 12.0000
     sceeorder =       2
     dynlmb =  0.0000 logdvdl =       0

FEP MBAR options:
     ifmbar  =       1,  bar_intervall =     1000
     mbar_states =      12

Ewald parameters:
     verbose =       0, ew_type =       0, nbflag  =       1, use_pme =       1
     vdwmeth =       1, eedmeth =       1, netfrc  =       1
     Box X =   32.703   Box Y =   37.439   Box Z =   33.758
     Alpha =   90.000   Beta  =   90.000   Gamma =   90.000
     NFFT1 =   36       NFFT2 =   40       NFFT3 =   36
     Cutoff=    8.000   Tol   =0.100E-04
     Ewald Coefficient =  0.34864
     Interpolation order =    4
     TI Mask 1 :1; matches     43 atoms
     TI Mask 2 :2; matches     43 atoms
     TI region 1:    4072 atoms
     TI region 2:    4072 atoms
     SC Mask 1 :1@H34; matches      1 atoms
     SC Mask 2 :2@Cl18; matches      1 atoms
Removing charge of       0.1510 from atom      43
Removing charge of      -0.0609 from atom      86
Total charge of   0.09010100 removed from       2 atoms

    MBAR - lambda values considered:
      12 total:  0.0000 0.0479 0.1150 0.2063 0.3160 0.4373 0.5626 0.6839 0.7936 0.8849 0.9520 1.0000
    Extra energies will be computed    500 times.
 Noshake mask :1,2; matches      86 atoms.

--------------------------------------------------------------------------------
   3.  ATOMIC COORDINATES AND VELOCITIES
--------------------------------------------------------------------------------

L0
 begin time read from input coords =    20.000 ps

     Molecule     1 is partially softcore
     Molecule     2 is partially softcore
 Number of triangulated 3-point waters found:     1343
   Removing shake constraints from C22   L0    1 -- H41   L0    1
   Removing shake constraints from C22   L0    1 -- H42   L0    1
   Removing shake constraints from C21   L0    1 -- H39   L0    1
   Removing shake constraints from C21   L0    1 -- H40   L0    1
   Removing shake constraints from C20   L0    1 -- H38   L0    1
   Removing shake constraints from C19   L0    1 -- H37   L0    1
   Removing shake constraints from C18   L0    1 -- H36   L0    1
   Removing shake constraints from C15   L0    1 -- H35   L0    1
   Removing shake constraints from C14   L0    1 -- H34   L0    1
   Removing shake constraints from C13   L0    1 -- H33   L0    1
   Removing shake constraints from C10   L0    1 -- H32   L0    1
   Removing shake constraints from C9    L0    1 -- H31   L0    1
   Removing shake constraints from C8    L0    1 -- H30   L0    1
   Removing shake constraints from N5    L0    1 -- H29   L0    1
   Removing shake constraints from N4    L0    1 -- H43   L0    1
   Removing shake constraints from N4    L0    1 -- H28   L0    1
   Removing shake constraints from C1    L0    1 -- H25   L0    1
   Removing shake constraints from C1    L0    1 -- H26   L0    1
   Removing shake constraints from C1    L0    1 -- H27   L0    1
   Removing shake constraints from C23   L1    2 -- H41   L1    2
   Removing shake constraints from C23   L1    2 -- H42   L1    2
   Removing shake constraints from C22   L1    2 -- H39   L1    2
   Removing shake constraints from C22   L1    2 -- H40   L1    2
   Removing shake constraints from C21   L1    2 -- H38   L1    2
   Removing shake constraints from C20   L1    2 -- H37   L1    2
   Removing shake constraints from C13   L1    2 -- H34   L1    2
   Removing shake constraints from C16   L1    2 -- H35   L1    2
   Removing shake constraints from C19   L1    2 -- H36   L1    2
   Removing shake constraints from C10   L1    2 -- H33   L1    2
   Removing shake constraints from C9    L1    2 -- H32   L1    2
   Removing shake constraints from C8    L1    2 -- H31   L1    2
   Removing shake constraints from N5    L1    2 -- H30   L1    2
   Removing shake constraints from N4    L1    2 -- H43   L1    2
   Removing shake constraints from N4    L1    2 -- H29   L1    2
   Removing shake constraints from C1    L1    2 -- H26   L1    2
   Removing shake constraints from C1    L1    2 -- H27   L1    2
   Removing shake constraints from C1    L1    2 -- H28   L1    2
 WARNING: SHAKEn bond for atoms       14       43 is partially softcore.
 Coordinates for common atoms will be synchronized from V0.
 Consider using noshake mask or disabling SHAKE.

 Number of shake restraints removed in TI region  1 :       19
 Number of shake restraints removed in TI region  2 :       18

     Sum of charges for TI region  1 =   0.84897300
     Assuming uniform neutralizing plasma

     Sum of charges for TI region  2 =   1.06096699
     Assuming uniform neutralizing plasma

--------------------------------------------------------------------------------
   4.  RESULTS
 NSTEP =     1000   TIME(PS) =      22.000  TEMP(K) =   279.00  PRESS =     0.0
 Etot   =    -10972.4032  EKtot   =      2264.5391  EPtot      =    -13236.9423
 BOND   =        16.7138  ANGLE   =        27.8750  DIHED      =        20.4773
 1-4 NB =         8.7274  1-4 EEL =       -71.4273  VDWAALS    =      2076.6847
 EELEC  =    -15315.9931  EHBOND  =         0.0000  RESTRAINT  =         0.0000
 EKCMT  =         0.0000  VIRIAL  =         0.0000  VOLUME     =     41505.6781
                                                    Density    =         0.9817
 DV/DL  =         2.6398
 ------------------------------------------------------------------------------

      A V E R A G E S   O V E R   50000 S T E P S

 NSTEP =    50000   TIME(PS) =     120.000  TEMP(K) =   297.35  PRESS =     0.0
 Etot   =    -10462.6978  EKtot   =      2413.4686  EPtot      =    -12876.1664
 BOND   =        17.8911  ANGLE   =        32.0617  DIHED      =        18.4926
 1-4 NB =         7.8886  1-4 EEL =       -69.4276  VDWAALS    =      1914.2889
 EELEC  =    -14797.3616  EHBOND  =         0.0000  RESTRAINT  =         0.0000
 EKCMT  =         0.0000  VIRIAL  =         0.0000  VOLUME     =     41135.2720
                                                    Density    =         0.9905
 DV/DL  =         0.2936
 ------------------------------------------------------------------------------

      R M S  F L U C T U A T I O N S

 NSTEP =    50000   TIME(PS) =     120.000  TEMP(K) =    10.72  PRESS =     0.0
 Etot   =       273.8876  EKtot   =        87.0043  EPtot      =       195.8809
 BOND   =         3.7229  ANGLE   =         3.2903  DIHED      =         2.7633
 1-4 NB =         0.8757  1-4 EEL =         1.8787  VDWAALS    =        99.7450
 EELEC  =       282.9111  EHBOND  =         0.0000  RESTRAINT  =         0.0000
 EKCMT  =         0.0000  VIRIAL  =         0.0000  VOLUME     =       298.1026
                                                    Density    =         0.0072
 DV/DL  =         2.6690
 ------------------------------------------------------------------------------

      A V E R A G E S   O V E R   50000 S T E P S

 NSTEP =    50000   TIME(PS) =     120.000  TEMP(K) =   297.35  PRESS =     0.0
 Etot   =    -10462.6959  EKtot   =      2413.4705  EPtot      =    -12876.1664
 BOND   =        17.8911  ANGLE   =        32.0617  DIHED      =        18.4926
 1-4 NB =         7.8886  1-4 EEL =       -69.4276  VDWAALS    =      1914.2889
 EELEC  =    -14797.3616  EHBOND  =         0.0000  RESTRAINT  =         0.0000
 EKCMT  =         0.0000  VIRIAL  =         0.0000  VOLUME     =     41135.2720
                                                    Density    =         0.9919
 DV/DL  =         0.2936
 ------------------------------------------------------------------------------

      R M S  F L U C T U A T I O N S

 NSTEP =    50000   TIME(PS) =     120.000  TEMP(K) =    10.72  PRESS =     0.0
 Etot   =       273.8901  EKtot   =        86.9986  EPtot      =       195.8809
 BOND   =         3.7229  ANGLE   =         3.2903  DIHED      =         2.7633
 1-4 NB =         0.8757  1-4 EEL =         1.8787  VDWAALS    =        99.7450
 EELEC  =       282.9111  EHBOND  =         0.0000  RESTRAINT  =         0.0000
 EKCMT  =         0.0000  VIRIAL  =         0.0000  VOLUME     =       298.1026
                                                    Density    =         0.0072
 DV/DL  =         2.6690
 ------------------------------------------------------------------------------

      DV/DL, AVERAGES OVER   50000 STEPS

 NSTEP =    50000   TIME(PS) =     120.000  TEMP(K) =    10.72  PRESS =     0.0
 Etot   =         0.0000  EKtot   =         0.0000  EPtot      =         0.2906
 BOND   =         0.0000  ANGLE   =         0.0000  DIHED      =         0.0000
 1-4 NB =         0.0000  1-4 EEL =         0.0000  VDWAALS    =        -0.2551
 EELEC  =        -0.2357  EHBOND  =         0.0000  RESTRAINT  =         0.0000
 EKCMT  =         0.0000  VIRIAL  =         0.0000  VOLUME     =         0.0000
                                                    Density    =         0.0000
 DV/DL  =         0.2906
 ------------------------------------------------------------------------------

      A V E R A G E S   O V E R   50000 S T E P S

 NSTEP =   100000   TIME(PS) =     220.000  TEMP(K) =   298.71  PRESS =     0.0
 Etot   =    -10416.4365  EKtot   =      2424.5075  EPtot      =    -12840.9440
 BOND   =        18.1688  ANGLE   =        32.0450  DIHED      =        18.5247
 1-4 NB =         7.8840  1-4 EEL =       -70.7399  VDWAALS    =      1899.8101
 EELEC  =    -14746.6366  EHBOND  =         0.0000  RESTRAINT  =         0.0000
 EKCMT  =         0.0000  VIRIAL  =         0.0000  VOLUME     =     41351.5298
                                                    Density    =         0.9854
 DV/DL  =         0.0345
 ------------------------------------------------------------------------------

      R M S  F L U C T U A T I O N S

 NSTEP =   100000   TIME(PS) =     220.000  TEMP(K) =     4.68  PRESS =     0.0
 Etot   =        71.3545  EKtot   =        37.9495  EPtot      =        57.5313
 BOND   =         3.7803  ANGLE   =         3.1842  DIHED      =         2.6727
 1-4 NB =         0.8884  1-4 EEL =         2.7131  VDWAALS    =        55.2367
 EELEC  =        91.5490  EHBOND  =         0.0000  RESTRAINT  =         0.0000
 EKCMT  =         0.0000  VIRIAL  =         0.0000  VOLUME     =       286.9613
                                                    Density    =         0.0068
 DV/DL  =         2.5242
 ------------------------------------------------------------------------------

      A V E R A G E S   O V E R   50000 S T E P S

 NSTEP =   100000   TIME(PS) =     220.000  TEMP(K) =   298.71  PRESS =     0.0
 Etot   =    -10416.4277  EKtot   =      2424.5163  EPtot      =    -12840.9440
 BOND   =        18.1688  ANGLE   =        32.0450  DIHED      =        18.5247
 1-4 NB =         7.8840  1-4 EEL =       -70.7399  VDWAALS    =      1899.8101
 EELEC  =    -14746.6366  EHBOND  =         0.0000  RESTRAINT  =         0.0000
 EKCMT  =         0.0000  VIRIAL  =         0.0000  VOLUME     =     41351.5298
                                                    Density    =         0.9867
 DV/DL  =         0.0345
 ------------------------------------------------------------------------------

      R M S  F L U C T U A T I O N S

 NSTEP =   100000   TIME(PS) =     220.000  TEMP(K) =     4.68  PRESS =     0.0
 Etot   =        71.3537  EKtot   =        37.9828  EPtot      =        57.5313
 BOND   =         3.7803  ANGLE   =         3.1842  DIHED      =         2.6727
 1-4 NB =         0.8884  1-4 EEL =         2.7131  VDWAALS    =        55.2367
 EELEC  =        91.5490  EHBOND  =         0.0000  RESTRAINT  =         0.0000
 EKCMT  =         0.0000  VIRIAL  =         0.0000  VOLUME     =       286.9613
                                                    Density    =         0.0069
 DV/DL  =         2.5242
 ------------------------------------------------------------------------------

      DV/DL, AVERAGES OVER   50000 STEPS

 NSTEP =   100000   TIME(PS) =     220.000  TEMP(K) =     4.68  PRESS =     0.0
 Etot   =         0.0000  EKtot   =         0.0000  EPtot      =         0.0331
 BOND   =         0.0000  ANGLE   =         0.0000  DIHED      =         0.0000
 1-4 NB =         0.0000  1-4 EEL =         0.0000  VDWAALS    =        -0.2538
 EELEC  =        -0.2355  EHBOND  =         0.0000  RESTRAINT  =         0.0000
 EKCMT  =         0.0000  VIRIAL  =         0.0000  VOLUME     =         0.0000
                                                    Density    =         0.0000
 DV/DL  =         0.0331
 ------------------------------------------------------------------------------

      A V E R A G E S   O V E R   50000 S T E P S

 NSTEP =   500000   TIME(PS) =    1020.000  TEMP(K) =   298.36  PRESS =     0.0
 Etot   =    -10429.4908  EKtot   =      2421.6680  EPtot      =    -12851.1588
 BOND   =        17.9533  ANGLE   =        31.9453  DIHED      =        18.0816
 1-4 NB =         7.9129  1-4 EEL =       -69.4170  VDWAALS    =      1901.5593
 EELEC  =    -14759.1943  EHBOND  =         0.0000  RESTRAINT  =         0.0000
 EKCMT  =         0.0000  VIRIAL  =         0.0000  VOLUME     =     41214.4081
                                                    Density    =         0.9886
 DV/DL  =         0.3060
 ------------------------------------------------------------------------------

      R M S  F L U C T U A T I O N S

 NSTEP =   500000   TIME(PS) =    1020.000  TEMP(K) =     4.67  PRESS =     0.0
 Etot   =        63.6537  EKtot   =        37.9377  EPtot      =        53.3807
 BOND   =         3.6652  ANGLE   =         3.2358  DIHED      =         2.5677
 1-4 NB =         0.8742  1-4 EEL =         1.8660  VDWAALS    =        56.1037
 EELEC  =        87.1034  EHBOND  =         0.0000  RESTRAINT  =         0.0000
 EKCMT  =         0.0000  VIRIAL  =         0.0000  VOLUME     =       259.2539
                                                    Density    =         0.0062
 DV/DL  =         2.7519
 ------------------------------------------------------------------------------

      A V E R A G E S   O V E R   50000 S T E P S

 NSTEP =   500000   TIME(PS) =    1020.000  TEMP(K) =   298.36  PRESS =     0.0
 Etot   =    -10429.4706  EKtot   =      2421.6882  EPtot      =    -12851.1588
 BOND   =        17.9533  ANGLE   =        31.9453  DIHED      =        18.0816
 1-4 NB =         7.9129  1-4 EEL =       -69.4170  VDWAALS    =      1901.5593
 EELEC  =    -14759.1943  EHBOND  =         0.0000  RESTRAINT  =         0.0000
 EKCMT  =         0.0000  VIRIAL  =         0.0000  VOLUME     =     41214.4081
                                                    Density    =         0.9900
 DV/DL  =         0.3060
 ------------------------------------------------------------------------------

      R M S  F L U C T U A T I O N S

 NSTEP =   500000   TIME(PS) =    1020.000  TEMP(K) =     4.67  PRESS =     0.0
 Etot   =        63.6463  EKtot   =        37.9418  EPtot      =        53.3807
 BOND   =         3.6652  ANGLE   =         3.2358  DIHED      =         2.5677
 1-4 NB =         0.8742  1-4 EEL =         1.8660  VDWAALS    =        56.1037
 EELEC  =        87.1034  EHBOND  =         0.0000  RESTRAINT  =         0.0000
 EKCMT  =         0.0000  VIRIAL  =         0.0000  VOLUME     =       259.2539
                                                    Density    =         0.0062
 DV/DL  =         2.7519
 ------------------------------------------------------------------------------

      DV/DL, AVERAGES OVER   50000 STEPS

 NSTEP =   500000   TIME(PS) =    1020.000  TEMP(K) =     4.67  PRESS =     0.0
 Etot   =         0.0000  EKtot   =         0.0000  EPtot      =         0.3029
 BOND   =         0.0000  ANGLE   =         0.0000  DIHED      =         0.0000
 1-4 NB =         0.0000  1-4 EEL =         0.0000  VDWAALS    =        -0.2546
 EELEC  =        -0.2356  EHBOND  =         0.0000  RESTRAINT  =         0.0000
 EKCMT  =         0.0000  VIRIAL  =         0.0000  VOLUME     =         0.0000
                                                    Density    =         0.0000
 DV/DL  =         0.3029
 ------------------------------------------------------------------------------

      A V E R A G E S   O V E R  500000 S T E P S

 NSTEP =   500000   TIME(PS) =    1020.000  TEMP(K) =   298.64  PRESS =     0.0
 Etot   =    -10419.7443  EKtot   =      2423.9600  EPtot      =    -12843.7043
 BOND   =        18.0206  ANGLE   =        32.1148  DIHED      =        18.6237
 1-4 NB =         7.8607  1-4 EEL =       -70.8944  VDWAALS    =      1900.6447
 EELEC  =    -14750.0745  EHBOND  =         0.0000  RESTRAINT  =         0.0000
 EKCMT  =         0.0000  VIRIAL  =         0.0000  VOLUME     =     41261.3012
                                                    Density    =         0.9875
 DV/DL  =         0.1854
 ------------------------------------------------------------------------------

      R M S  F L U C T U A T I O N S

 NSTEP =   500000   TIME(PS) =    1020.000  TEMP(K) =     5.56  PRESS =     0.0
 Etot   =       109.0260  EKtot   =        45.1619  EPtot      =        82.9414
 BOND   =         3.7673  ANGLE   =         3.2316  DIHED      =         2.7049
 1-4 NB =         0.8751  1-4 EEL =         2.6314  VDWAALS    =        62.7605
 EELEC  =       126.0218  EHBOND  =         0.0000  RESTRAINT  =         0.0000
 EKCMT  =         0.0000  VIRIAL  =         0.0000  VOLUME     =       320.2873
                                                    Density    =         0.0077
 DV/DL  =         2.6473
 ------------------------------------------------------------------------------

      A V E R A G E S   O V E R  500000 S T E P S

 NSTEP =   500000   TIME(PS) =    1020.000  TEMP(K) =   298.64  PRESS =     0.0
 Etot   =    -10419.7372  EKtot   =      2423.9671  EPtot      =    -12843.7043
 BOND   =        18.0206  ANGLE   =        32.1148  DIHED      =        18.6237
 1-4 NB =         7.8607  1-4 EEL =       -70.8944  VDWAALS    =      1900.6447
 EELEC  =    -14750.0745  EHBOND  =         0.0000  RESTRAINT  =         0.0000
 EKCMT  =         0.0000  VIRIAL  =         0.0000  VOLUME     =     41261.3012
                                                    Density    =         0.9889
 DV/DL  =         0.1854
 ------------------------------------------------------------------------------

      R M S  F L U C T U A T I O N S

 NSTEP =   500000   TIME(PS) =    1020.000  TEMP(K) =     5.56  PRESS =     0.0
 Etot   =       109.0272  EKtot   =        45.1687  EPtot      =        82.9414
 BOND   =         3.7673  ANGLE   =         3.2316  DIHED      =         2.7049
 1-4 NB =         0.8751  1-4 EEL =         2.6314  VDWAALS    =        62.7605
 EELEC  =       126.0218  EHBOND  =         0.0000  RESTRAINT  =         0.0000
 EKCMT  =         0.0000  VIRIAL  =         0.0000  VOLUME     =       320.2873
                                                    Density    =         0.0077
 DV/DL  =         2.6473
 ------------------------------------------------------------------------------

      DV/DL, AVERAGES OVER  500000 STEPS

 NSTEP =   500000   TIME(PS) =    1020.000  TEMP(K) =     5.56  PRESS =     0.0
 Etot   =         0.0000  EKtot   =         0.0000  EPtot      =         0.1835
 BOND   =         0.0000  ANGLE   =         0.0000  DIHED      =         0.0000
 1-4 NB =         0.0000  1-4 EEL =         0.0000  VDWAALS    =        -0.2543
 EELEC  =        -0.2356  EHBOND  =         0.0000  RESTRAINT  =         0.0000
 EKCMT  =         0.0000  VIRIAL  =         0.0000  VOLUME     =         0.0000
                                                    Density    =         0.0000
 DV/DL  =         0.1835
 ------------------------------------------------------------------------------
