-------------------------------------------------------
          Amber 16 PMEMD                              2016
          -------------------------------------------------------

  [-O]verwriting output

File Assignments:

 Here is the input file:

TI/FEP, NpT, decharge transformation
 &cntrl
 ! please adjust namelist parameters to your needs!

 ! parameters for general MD
 imin = 0, nstlim = 500000, irest = 1, ntx = 5, dt = 0.002,
 ntt = 3, temp0 = 298.0, gamma_ln = 2.0, ig = -1,
 ntb = 2,
 ntp = 1, barostat = 2, pres0 = 1.01325, taup = 2.0,
 ntwe = 100, ntwx = 10000, ntpr = 1000, ntwr = 50000, ntave = 50000,
 ioutfm = 1, iwrap = 1, ntxo = 2,

 ! parameters for alchemical free energy simulation
 ntc = 2, ntf = 1,
 noshakemask = ':1,2',

 icfe = 1, ifsc = 0, clambda = 0.50, scalpha = 0.5, scbeta = 12.0,
 ifmbar = 1, mbar_lambda = 0.00 0.25 0.50 0.75 1.00,
 mbar_states = 5, bar_intervall = 1000,   ! ntpr = bar_intervall for alchemical

 timask1=':1', timask2=':2',
scmask1='',
scmask2='',
 crgmask = ':2@H34',
 /
 &ewald
 /

Note: ig = -1. Setting random seed to   460671 based on wallclock time in
      microseconds.

--------------------------------------------------------------------------------
   1.  RESOURCE   USE:
--------------------------------------------------------------------------------

 getting box info from netcdf restart file
 NATOM  =    4115 NTYPES =      13 NBONH =    4067 MBONA  =      54
 NTHETH =      80 MTHETA =      82 NPHIH =     156 MPHIA  =     130
 NHPARM =       0 NPARM  =       0 NNB   =    5842 NRES   =    1345
 NBONA  =      54 NTHETA =      82 NPHIA =     130 NUMBND =      22
 NUMANG =      35 NPTRA  =      14 NATYP =      17 NPHB   =       1
 IFBOX  =       1 NMXRS  =      43 IFCAP =       0 NEXTRA =       0
 NCOPY  =       0

     BOX TYPE: RECTILINEAR

--------------------------------------------------------------------------------
   2.  CONTROL  DATA  FOR  THE  RUN
--------------------------------------------------------------------------------

L0

General flags:
     imin    =       0, nmropt  =       0

Nature and format of input:
     ntx     =       5, irest   =       1, ntrx    =       1

Nature and format of output:
     ntxo    =       2, ntpr    =    1000, ntrx    =       1, ntwr    =   50000
     iwrap   =       1, ntwx    =   10000, ntwv    =       0, ntwe    =     100
     ioutfm  =       1, ntwprt  =       0, idecomp =       0, rbornstat=      0

Potential function:
     ntf     =       1, ntb     =       2, igb     =       0, nsnb    =      25
     ipol    =       0, gbsa    =       0, iesp    =       0
     dielc   =   1.00000, cut     =   8.00000, intdiel =   1.00000

Frozen or restrained atoms:
     ibelly  =       0, ntr     =       0

Molecular dynamics:
     nstlim  =    500000, nscm    =      1000, nrespa  =         1
     t       =   0.00000, dt      =   0.00200, vlimit  =  -1.00000

Langevin dynamics temperature regulation:
     ig      =  460671
     temp0   = 298.00000, tempi   =   0.00000, gamma_ln=   2.00000

Pressure regulation:
     ntp     =       1
     pres0   =   1.01325, comp    =  44.60000, taup    =   2.00000
     Monte-Carlo Barostat:
     mcbarint  =     100

SHAKE:
     ntc     =       2, jfastw  =       0
     tol     =   0.00001

Free energy options:
     icfe    =       1, ifsc    =       0, klambda =       1
     clambda =  0.5000, scalpha =  0.5000, scbeta  = 12.0000
     sceeorder =       2
     dynlmb =  0.0000 logdvdl =       0

FEP MBAR options:
     ifmbar  =       1,  bar_intervall =     1000
     mbar_states =       5

Ewald parameters:
     verbose =       0, ew_type =       0, nbflag  =       1, use_pme =       1
     vdwmeth =       1, eedmeth =       1, netfrc  =       1
     Box X =   32.703   Box Y =   37.439   Box Z =   33.758
     Alpha =   90.000   Beta  =   90.000   Gamma =   90.000
     NFFT1 =   36       NFFT2 =   40       NFFT3 =   36
     Cutoff=    8.000   Tol   =0.100E-04
     Ewald Coefficient =  0.34864
     Interpolation order =    4
     TI Mask 1 :1; matches     43 atoms
     TI Mask 2 :2; matches     43 atoms
     TI region 1:    4072 atoms
     TI region 2:    4072 atoms
Removing charge of       0.1510 from atom      86
Total charge of   0.15104700 removed from       1 atoms

    MBAR - lambda values considered:
       5 total:  0.0000 0.2500 0.5000 0.7500 1.0000
    Extra energies will be computed    500 times.
     Checking for mismatched coordinates.
 Noshake mask :1,2; matches      86 atoms.

--------------------------------------------------------------------------------
   3.  ATOMIC COORDINATES AND VELOCITIES
--------------------------------------------------------------------------------

L0
 begin time read from input coords =    20.000 ps

 Number of triangulated 3-point waters found:     1343
   Removing shake constraints from C22   L0    1 -- H41   L0    1
   Removing shake constraints from C22   L0    1 -- H42   L0    1
   Removing shake constraints from C21   L0    1 -- H39   L0    1
   Removing shake constraints from C21   L0    1 -- H40   L0    1
   Removing shake constraints from C20   L0    1 -- H38   L0    1
   Removing shake constraints from C19   L0    1 -- H37   L0    1
   Removing shake constraints from C18   L0    1 -- H36   L0    1
   Removing shake constraints from C15   L0    1 -- H35   L0    1
   Removing shake constraints from C14   L0    1 -- H34   L0    1
   Removing shake constraints from C13   L0    1 -- H33   L0    1
   Removing shake constraints from C10   L0    1 -- H32   L0    1
   Removing shake constraints from C9    L0    1 -- H31   L0    1
   Removing shake constraints from C8    L0    1 -- H30   L0    1
   Removing shake constraints from N5    L0    1 -- H29   L0    1
   Removing shake constraints from N4    L0    1 -- H43   L0    1
   Removing shake constraints from N4    L0    1 -- H28   L0    1
   Removing shake constraints from C1    L0    1 -- H25   L0    1
   Removing shake constraints from C1    L0    1 -- H26   L0    1
   Removing shake constraints from C1    L0    1 -- H27   L0    1
   Removing shake constraints from C22   L0    2 -- H41   L0    2
   Removing shake constraints from C22   L0    2 -- H42   L0    2
   Removing shake constraints from C21   L0    2 -- H39   L0    2
   Removing shake constraints from C21   L0    2 -- H40   L0    2
   Removing shake constraints from C20   L0    2 -- H38   L0    2
   Removing shake constraints from C19   L0    2 -- H37   L0    2
   Removing shake constraints from C18   L0    2 -- H36   L0    2
   Removing shake constraints from C15   L0    2 -- H35   L0    2
   Removing shake constraints from C14   L0    2 -- H34   L0    2
   Removing shake constraints from C13   L0    2 -- H33   L0    2
   Removing shake constraints from C10   L0    2 -- H32   L0    2
   Removing shake constraints from C9    L0    2 -- H31   L0    2
   Removing shake constraints from C8    L0    2 -- H30   L0    2
   Removing shake constraints from N5    L0    2 -- H29   L0    2
   Removing shake constraints from N4    L0    2 -- H43   L0    2
   Removing shake constraints from N4    L0    2 -- H28   L0    2
   Removing shake constraints from C1    L0    2 -- H25   L0    2
   Removing shake constraints from C1    L0    2 -- H26   L0    2
   Removing shake constraints from C1    L0    2 -- H27   L0    2
 Number of shake restraints removed:       38

     Sum of charges for TI region  1 =   1.00002000
     Assuming uniform neutralizing plasma

     Sum of charges for TI region  2 =   0.84897300
     Assuming uniform neutralizing plasma

--------------------------------------------------------------------------------
   4.  RESULTS
 NSTEP =     1000   TIME(PS) =      22.000  TEMP(K) =   274.65  PRESS =     0.0
 Etot   =    -10984.0516  EKtot   =      2239.3276  EPtot      =    -13223.3792
 BOND   =        20.5693  ANGLE   =        28.4238  DIHED      =        21.5518
 1-4 NB =         9.0760  1-4 EEL =       -66.0822  VDWAALS    =      2103.9724
 EELEC  =    -15340.8903  EHBOND  =         0.0000  RESTRAINT  =         0.0000
 EKCMT  =         0.0000  VIRIAL  =         0.0000  VOLUME     =     41665.2772
                                                    Density    =         0.9779
 DV/DL  =        -8.8019
 ------------------------------------------------------------------------------

      A V E R A G E S   O V E R   50000 S T E P S

 NSTEP =    50000   TIME(PS) =     120.000  TEMP(K) =   295.97  PRESS =     0.0
 Etot   =    -10448.5950  EKtot   =      2413.2080  EPtot      =    -12861.8030
 BOND   =        18.2878  ANGLE   =        32.4206  DIHED      =        19.0555
 1-4 NB =         7.9497  1-4 EEL =       -64.1101  VDWAALS    =      1913.9262
 EELEC  =    -14789.3327  EHBOND  =         0.0000  RESTRAINT  =         0.0000
 EKCMT  =         0.0000  VIRIAL  =         0.0000  VOLUME     =     41339.5012
                                                    Density    =         0.9856
 DV/DL  =        -5.4381
 ------------------------------------------------------------------------------

      R M S  F L U C T U A T I O N S

 NSTEP =    50000   TIME(PS) =     120.000  TEMP(K) =    10.40  PRESS =     0.0
 Etot   =       274.2018  EKtot   =        84.7706  EPtot      =       198.5948
 BOND   =         3.7411  ANGLE   =         3.3069  DIHED      =         2.7652
 1-4 NB =         0.8771  1-4 EEL =         1.9182  VDWAALS    =       102.5728
 EELEC  =       288.6426  EHBOND  =         0.0000  RESTRAINT  =         0.0000
 EKCMT  =         0.0000  VIRIAL  =         0.0000  VOLUME     =       212.8563
                                                    Density    =         0.0051
 DV/DL  =         1.4041
 ------------------------------------------------------------------------------

      A V E R A G E S   O V E R   50000 S T E P S

 NSTEP =    50000   TIME(PS) =     120.000  TEMP(K) =   295.97  PRESS =     0.0
 Etot   =    -10448.5950  EKtot   =      2413.2080  EPtot      =    -12861.8030
 BOND   =        18.2878  ANGLE   =        32.4206  DIHED      =        19.0555
 1-4 NB =         7.9497  1-4 EEL =       -64.1101  VDWAALS    =      1913.9262
 EELEC  =    -14789.3327  EHBOND  =         0.0000  RESTRAINT  =         0.0000
 EKCMT  =         0.0000  VIRIAL  =         0.0000  VOLUME     =     41339.5012
                                                    Density    =         0.9856
 DV/DL  =        -5.4381
 ------------------------------------------------------------------------------

      R M S  F L U C T U A T I O N S

 NSTEP =    50000   TIME(PS) =     120.000  TEMP(K) =    10.40  PRESS =     0.0
 Etot   =       274.2018  EKtot   =        84.7706  EPtot      =       198.5948
 BOND   =         3.7411  ANGLE   =         3.3069  DIHED      =         2.7652
 1-4 NB =         0.8771  1-4 EEL =         1.9182  VDWAALS    =       102.5728
 EELEC  =       288.6426  EHBOND  =         0.0000  RESTRAINT  =         0.0000
 EKCMT  =         0.0000  VIRIAL  =         0.0000  VOLUME     =       212.8563
                                                    Density    =         0.0051
 DV/DL  =         1.4041
 ------------------------------------------------------------------------------

      DV/DL, AVERAGES OVER   50000 STEPS

 NSTEP =    50000   TIME(PS) =     120.000  TEMP(K) =    10.40  PRESS =     0.0
 Etot   =         0.0000  EKtot   =         0.0000  EPtot      =        -5.3832
 BOND   =         0.0000  ANGLE   =         0.0000  DIHED      =         0.0000
 1-4 NB =         0.0000  1-4 EEL =         0.0000  VDWAALS    =         0.0000
 EELEC  =         1.5191  EHBOND  =         0.0000  RESTRAINT  =         0.0000
 EKCMT  =         0.0000  VIRIAL  =         0.0000  VOLUME     =         0.0000
                                                    Density    =         0.0000
 DV/DL  =        -5.3832
 ------------------------------------------------------------------------------

      A V E R A G E S   O V E R   50000 S T E P S

 NSTEP =   100000   TIME(PS) =     220.000  TEMP(K) =   297.45  PRESS =     0.0
 Etot   =    -10403.5961  EKtot   =      2425.2326  EPtot      =    -12828.8287
 BOND   =        18.7398  ANGLE   =        32.7003  DIHED      =        18.6744
 1-4 NB =         8.0454  1-4 EEL =       -63.4318  VDWAALS    =      1897.8638
 EELEC  =    -14741.4205  EHBOND  =         0.0000  RESTRAINT  =         0.0000
 EKCMT  =         0.0000  VIRIAL  =         0.0000  VOLUME     =     41343.7233
                                                    Density    =         0.9856
 DV/DL  =        -5.4540
 ------------------------------------------------------------------------------

      R M S  F L U C T U A T I O N S

 NSTEP =   100000   TIME(PS) =     220.000  TEMP(K) =     4.70  PRESS =     0.0
 Etot   =        66.4381  EKtot   =        38.2919  EPtot      =        55.2997
 BOND   =         3.8251  ANGLE   =         3.2997  DIHED      =         2.8078
 1-4 NB =         0.9176  1-4 EEL =         1.8756  VDWAALS    =        55.3226
 EELEC  =        89.5128  EHBOND  =         0.0000  RESTRAINT  =         0.0000
 EKCMT  =         0.0000  VIRIAL  =         0.0000  VOLUME     =       369.7949
                                                    Density    =         0.0088
 DV/DL  =         1.4379
 ------------------------------------------------------------------------------

      A V E R A G E S   O V E R   50000 S T E P S

 NSTEP =   100000   TIME(PS) =     220.000  TEMP(K) =   297.45  PRESS =     0.0
 Etot   =    -10403.5961  EKtot   =      2425.2326  EPtot      =    -12828.8287
 BOND   =        18.7398  ANGLE   =        32.7003  DIHED      =        18.6744
 1-4 NB =         8.0454  1-4 EEL =       -63.4318  VDWAALS    =      1897.8638
 EELEC  =    -14741.4205  EHBOND  =         0.0000  RESTRAINT  =         0.0000
 EKCMT  =         0.0000  VIRIAL  =         0.0000  VOLUME     =     41343.7233
                                                    Density    =         0.9856
 DV/DL  =        -5.4540
 ------------------------------------------------------------------------------

      R M S  F L U C T U A T I O N S

 NSTEP =   100000   TIME(PS) =     220.000  TEMP(K) =     4.70  PRESS =     0.0
 Etot   =        66.4381  EKtot   =        38.2919  EPtot      =        55.2997
 BOND   =         3.8251  ANGLE   =         3.2997  DIHED      =         2.8078
 1-4 NB =         0.9176  1-4 EEL =         1.8756  VDWAALS    =        55.3226
 EELEC  =        89.5128  EHBOND  =         0.0000  RESTRAINT  =         0.0000
 EKCMT  =         0.0000  VIRIAL  =         0.0000  VOLUME     =       369.7949
                                                    Density    =         0.0088
 DV/DL  =         1.4379
 ------------------------------------------------------------------------------

      DV/DL, AVERAGES OVER   50000 STEPS

 NSTEP =   100000   TIME(PS) =     220.000  TEMP(K) =     4.70  PRESS =     0.0
 Etot   =         0.0000  EKtot   =         0.0000  EPtot      =        -5.3997
 BOND   =         0.0000  ANGLE   =         0.0000  DIHED      =         0.0000
 1-4 NB =         0.0000  1-4 EEL =         0.0000  VDWAALS    =         0.0000
 EELEC  =         1.5191  EHBOND  =         0.0000  RESTRAINT  =         0.0000
 EKCMT  =         0.0000  VIRIAL  =         0.0000  VOLUME     =         0.0000
                                                    Density    =         0.0000
 DV/DL  =        -5.3997
 ------------------------------------------------------------------------------

      A V E R A G E S   O V E R   50000 S T E P S

 NSTEP =   500000   TIME(PS) =    1020.000  TEMP(K) =   297.86  PRESS =     0.0
 Etot   =    -10400.8332  EKtot   =      2428.6156  EPtot      =    -12829.4487
 BOND   =        18.6504  ANGLE   =        32.9269  DIHED      =        19.2365
 1-4 NB =         8.0774  1-4 EEL =       -64.6023  VDWAALS    =      1895.6863
 EELEC  =    -14739.4240  EHBOND  =         0.0000  RESTRAINT  =         0.0000
 EKCMT  =         0.0000  VIRIAL  =         0.0000  VOLUME     =     41252.8701
                                                    Density    =         0.9877
 DV/DL  =        -5.5003
 ------------------------------------------------------------------------------

      R M S  F L U C T U A T I O N S

 NSTEP =   500000   TIME(PS) =    1020.000  TEMP(K) =     4.72  PRESS =     0.0
 Etot   =        69.6913  EKtot   =        38.4598  EPtot      =        56.4711
 BOND   =         4.0297  ANGLE   =         3.3803  DIHED      =         2.7345
 1-4 NB =         0.9346  1-4 EEL =         2.7389  VDWAALS    =        54.7817
 EELEC  =        89.6007  EHBOND  =         0.0000  RESTRAINT  =         0.0000
 EKCMT  =         0.0000  VIRIAL  =         0.0000  VOLUME     =       270.3968
                                                    Density    =         0.0065
 DV/DL  =         1.4077
 ------------------------------------------------------------------------------

      A V E R A G E S   O V E R   50000 S T E P S

 NSTEP =   500000   TIME(PS) =    1020.000  TEMP(K) =   297.86  PRESS =     0.0
 Etot   =    -10400.8332  EKtot   =      2428.6156  EPtot      =    -12829.4487
 BOND   =        18.6504  ANGLE   =        32.9269  DIHED      =        19.2365
 1-4 NB =         8.0774  1-4 EEL =       -64.6023  VDWAALS    =      1895.6863
 EELEC  =    -14739.4240  EHBOND  =         0.0000  RESTRAINT  =         0.0000
 EKCMT  =         0.0000  VIRIAL  =         0.0000  VOLUME     =     41252.8701
                                                    Density    =         0.9877
 DV/DL  =        -5.5003
 ------------------------------------------------------------------------------

      R M S  F L U C T U A T I O N S

 NSTEP =   500000   TIME(PS) =    1020.000  TEMP(K) =     4.72  PRESS =     0.0
 Etot   =        69.6913  EKtot   =        38.4598  EPtot      =        56.4711
 BOND   =         4.0297  ANGLE   =         3.3803  DIHED      =         2.7345
 1-4 NB =         0.9346  1-4 EEL =         2.7389  VDWAALS    =        54.7817
 EELEC  =        89.6007  EHBOND  =         0.0000  RESTRAINT  =         0.0000
 EKCMT  =         0.0000  VIRIAL  =         0.0000  VOLUME     =       270.3968
                                                    Density    =         0.0065
 DV/DL  =         1.4077
 ------------------------------------------------------------------------------

      DV/DL, AVERAGES OVER   50000 STEPS

 NSTEP =   500000   TIME(PS) =    1020.000  TEMP(K) =     4.72  PRESS =     0.0
 Etot   =         0.0000  EKtot   =         0.0000  EPtot      =        -5.4458
 BOND   =         0.0000  ANGLE   =         0.0000  DIHED      =         0.0000
 1-4 NB =         0.0000  1-4 EEL =         0.0000  VDWAALS    =         0.0000
 EELEC  =         1.5192  EHBOND  =         0.0000  RESTRAINT  =         0.0000
 EKCMT  =         0.0000  VIRIAL  =         0.0000  VOLUME     =         0.0000
                                                    Density    =         0.0000
 DV/DL  =        -5.4458
 ------------------------------------------------------------------------------

      A V E R A G E S   O V E R  500000 S T E P S

 NSTEP =   500000   TIME(PS) =    1020.000  TEMP(K) =   297.46  PRESS =     0.0
 Etot   =    -10410.7203  EKtot   =      2425.2910  EPtot      =    -12836.0113
 BOND   =        18.5659  ANGLE   =        32.6818  DIHED      =        19.0808
 1-4 NB =         7.9830  1-4 EEL =       -64.5143  VDWAALS    =      1900.0191
 EELEC  =    -14749.8276  EHBOND  =         0.0000  RESTRAINT  =         0.0000
 EKCMT  =         0.0000  VIRIAL  =         0.0000  VOLUME     =     41259.7319
                                                    Density    =         0.9876
 DV/DL  =        -5.4734
 ------------------------------------------------------------------------------

      R M S  F L U C T U A T I O N S

 NSTEP =   500000   TIME(PS) =    1020.000  TEMP(K) =     5.54  PRESS =     0.0
 Etot   =       108.7147  EKtot   =        45.1321  EPtot      =        82.6553
 BOND   =         3.8604  ANGLE   =         3.3330  DIHED      =         2.7818
 1-4 NB =         0.9024  1-4 EEL =         2.4653  VDWAALS    =        62.5344
 EELEC  =       125.5431  EHBOND  =         0.0000  RESTRAINT  =         0.0000
 EKCMT  =         0.0000  VIRIAL  =         0.0000  VOLUME     =       303.9923
                                                    Density    =         0.0073
 DV/DL  =         1.4167
 ------------------------------------------------------------------------------

      A V E R A G E S   O V E R  500000 S T E P S

 NSTEP =   500000   TIME(PS) =    1020.000  TEMP(K) =   297.46  PRESS =     0.0
 Etot   =    -10410.7203  EKtot   =      2425.2910  EPtot      =    -12836.0113
 BOND   =        18.5659  ANGLE   =        32.6818  DIHED      =        19.0808
 1-4 NB =         7.9830  1-4 EEL =       -64.5143  VDWAALS    =      1900.0191
 EELEC  =    -14749.8276  EHBOND  =         0.0000  RESTRAINT  =         0.0000
 EKCMT  =         0.0000  VIRIAL  =         0.0000  VOLUME     =     41259.7319
                                                    Density    =         0.9876
 DV/DL  =        -5.4734
 ------------------------------------------------------------------------------

      R M S  F L U C T U A T I O N S

 NSTEP =   500000   TIME(PS) =    1020.000  TEMP(K) =     5.54  PRESS =     0.0
 Etot   =       108.7147  EKtot   =        45.1321  EPtot      =        82.6553
 BOND   =         3.8604  ANGLE   =         3.3330  DIHED      =         2.7818
 1-4 NB =         0.9024  1-4 EEL =         2.4653  VDWAALS    =        62.5344
 EELEC  =       125.5431  EHBOND  =         0.0000  RESTRAINT  =         0.0000
 EKCMT  =         0.0000  VIRIAL  =         0.0000  VOLUME     =       303.9923
                                                    Density    =         0.0073
 DV/DL  =         1.4167
 ------------------------------------------------------------------------------

      DV/DL, AVERAGES OVER  500000 STEPS

 NSTEP =   500000   TIME(PS) =    1020.000  TEMP(K) =     5.54  PRESS =     0.0
 Etot   =         0.0000  EKtot   =         0.0000  EPtot      =        -5.4190
 BOND   =         0.0000  ANGLE   =         0.0000  DIHED      =         0.0000
 1-4 NB =         0.0000  1-4 EEL =         0.0000  VDWAALS    =         0.0000
 EELEC  =         1.5192  EHBOND  =         0.0000  RESTRAINT  =         0.0000
 EKCMT  =         0.0000  VIRIAL  =         0.0000  VOLUME     =         0.0000
                                                    Density    =         0.0000
 DV/DL  =        -5.4190
 ------------------------------------------------------------------------------
