-------------------------------------------------------
          Amber 16 PMEMD                              2016
          -------------------------------------------------------

  [-O]verwriting output

File Assignments:

 Here is the input file:

TI/FEP, NpT, recharge transformation
 &cntrl
 ! please adjust namelist parameters to your needs!

 ! parameters for general MD
 imin = 0, nstlim = 500000, irest = 1, ntx = 5, dt = 0.002,
 ntt = 3, temp0 = 298.0, gamma_ln = 2.0, ig = -1,
 ntb = 2,
 ntp = 1, barostat = 2, pres0 = 1.01325, taup = 2.0,
 ntwe = 100, ntwx = 10000, ntpr = 1000, ntwr = 50000, ntave = 50000,
 ioutfm = 1, iwrap = 1, ntxo = 2,

 ! parameters for alchemical free energy simulation
 ntc = 2, ntf = 1,
 noshakemask = ':1,2',

 icfe = 1, ifsc = 0, clambda = 0.50, scalpha = 0.5, scbeta = 12.0,
 ifmbar = 1, mbar_lambda = 0.00 0.25 0.50 0.75 1.00,
 mbar_states = 5, bar_intervall = 1000,   ! ntpr = bar_intervall for alchemical

 timask1=':1', timask2=':2',
scmask1='',
scmask2='',
 crgmask = ':1@Cl18',
 /
 &ewald
 /

Note: ig = -1. Setting random seed to   842712 based on wallclock time in
      microseconds.

--------------------------------------------------------------------------------
   1.  RESOURCE   USE:
--------------------------------------------------------------------------------

 getting box info from netcdf restart file
 NATOM  =    4115 NTYPES =      13 NBONH =    4065 MBONA  =      56
 NTHETH =      76 MTHETA =      86 NPHIH =     150 MPHIA  =     136
 NHPARM =       0 NPARM  =       0 NNB   =    5842 NRES   =    1345
 NBONA  =      56 NTHETA =      86 NPHIA =     136 NUMBND =      22
 NUMANG =      35 NPTRA  =      14 NATYP =      17 NPHB   =       1
 IFBOX  =       1 NMXRS  =      43 IFCAP =       0 NEXTRA =       0
 NCOPY  =       0

     BOX TYPE: RECTILINEAR

--------------------------------------------------------------------------------
   2.  CONTROL  DATA  FOR  THE  RUN
--------------------------------------------------------------------------------

L1

General flags:
     imin    =       0, nmropt  =       0

Nature and format of input:
     ntx     =       5, irest   =       1, ntrx    =       1

Nature and format of output:
     ntxo    =       2, ntpr    =    1000, ntrx    =       1, ntwr    =   50000
     iwrap   =       1, ntwx    =   10000, ntwv    =       0, ntwe    =     100
     ioutfm  =       1, ntwprt  =       0, idecomp =       0, rbornstat=      0

Potential function:
     ntf     =       1, ntb     =       2, igb     =       0, nsnb    =      25
     ipol    =       0, gbsa    =       0, iesp    =       0
     dielc   =   1.00000, cut     =   8.00000, intdiel =   1.00000

Frozen or restrained atoms:
     ibelly  =       0, ntr     =       0

Molecular dynamics:
     nstlim  =    500000, nscm    =      1000, nrespa  =         1
     t       =   0.00000, dt      =   0.00200, vlimit  =  -1.00000

Langevin dynamics temperature regulation:
     ig      =  842712
     temp0   = 298.00000, tempi   =   0.00000, gamma_ln=   2.00000

Pressure regulation:
     ntp     =       1
     pres0   =   1.01325, comp    =  44.60000, taup    =   2.00000
     Monte-Carlo Barostat:
     mcbarint  =     100

SHAKE:
     ntc     =       2, jfastw  =       0
     tol     =   0.00001

Free energy options:
     icfe    =       1, ifsc    =       0, klambda =       1
     clambda =  0.5000, scalpha =  0.5000, scbeta  = 12.0000
     sceeorder =       2
     dynlmb =  0.0000 logdvdl =       0

FEP MBAR options:
     ifmbar  =       1,  bar_intervall =     1000
     mbar_states =       5

Ewald parameters:
     verbose =       0, ew_type =       0, nbflag  =       1, use_pme =       1
     vdwmeth =       1, eedmeth =       1, netfrc  =       1
     Box X =   32.703   Box Y =   37.439   Box Z =   33.758
     Alpha =   90.000   Beta  =   90.000   Gamma =   90.000
     NFFT1 =   36       NFFT2 =   40       NFFT3 =   36
     Cutoff=    8.000   Tol   =0.100E-04
     Ewald Coefficient =  0.34864
     Interpolation order =    4
     TI Mask 1 :1; matches     43 atoms
     TI Mask 2 :2; matches     43 atoms
     TI region 1:    4072 atoms
     TI region 2:    4072 atoms
Removing charge of      -0.0609 from atom      43
Total charge of  -0.06094600 removed from       1 atoms

    MBAR - lambda values considered:
       5 total:  0.0000 0.2500 0.5000 0.7500 1.0000
    Extra energies will be computed    500 times.
     Checking for mismatched coordinates.
 Noshake mask :1,2; matches      86 atoms.

--------------------------------------------------------------------------------
   3.  ATOMIC COORDINATES AND VELOCITIES
--------------------------------------------------------------------------------

L1
 begin time read from input coords =    20.000 ps

 Number of triangulated 3-point waters found:     1343
   Removing shake constraints from C23   L1    1 -- H41   L1    1
   Removing shake constraints from C23   L1    1 -- H42   L1    1
   Removing shake constraints from C22   L1    1 -- H39   L1    1
   Removing shake constraints from C22   L1    1 -- H40   L1    1
   Removing shake constraints from C21   L1    1 -- H38   L1    1
   Removing shake constraints from C20   L1    1 -- H37   L1    1
   Removing shake constraints from C13   L1    1 -- H34   L1    1
   Removing shake constraints from C16   L1    1 -- H35   L1    1
   Removing shake constraints from C19   L1    1 -- H36   L1    1
   Removing shake constraints from C10   L1    1 -- H33   L1    1
   Removing shake constraints from C9    L1    1 -- H32   L1    1
   Removing shake constraints from C8    L1    1 -- H31   L1    1
   Removing shake constraints from N5    L1    1 -- H30   L1    1
   Removing shake constraints from N4    L1    1 -- H43   L1    1
   Removing shake constraints from N4    L1    1 -- H29   L1    1
   Removing shake constraints from C1    L1    1 -- H26   L1    1
   Removing shake constraints from C1    L1    1 -- H27   L1    1
   Removing shake constraints from C1    L1    1 -- H28   L1    1
   Removing shake constraints from C23   L1    2 -- H41   L1    2
   Removing shake constraints from C23   L1    2 -- H42   L1    2
   Removing shake constraints from C22   L1    2 -- H39   L1    2
   Removing shake constraints from C22   L1    2 -- H40   L1    2
   Removing shake constraints from C21   L1    2 -- H38   L1    2
   Removing shake constraints from C20   L1    2 -- H37   L1    2
   Removing shake constraints from C13   L1    2 -- H34   L1    2
   Removing shake constraints from C16   L1    2 -- H35   L1    2
   Removing shake constraints from C19   L1    2 -- H36   L1    2
   Removing shake constraints from C10   L1    2 -- H33   L1    2
   Removing shake constraints from C9    L1    2 -- H32   L1    2
   Removing shake constraints from C8    L1    2 -- H31   L1    2
   Removing shake constraints from N5    L1    2 -- H30   L1    2
   Removing shake constraints from N4    L1    2 -- H43   L1    2
   Removing shake constraints from N4    L1    2 -- H29   L1    2
   Removing shake constraints from C1    L1    2 -- H26   L1    2
   Removing shake constraints from C1    L1    2 -- H27   L1    2
   Removing shake constraints from C1    L1    2 -- H28   L1    2
 Number of shake restraints removed:       36

     Sum of charges for TI region  1 =   1.06096699
     Assuming uniform neutralizing plasma

     Sum of charges for TI region  2 =   1.00002099
     Assuming uniform neutralizing plasma

--------------------------------------------------------------------------------
   4.  RESULTS
 NSTEP =     1000   TIME(PS) =      22.000  TEMP(K) =   283.89  PRESS =     0.0
 Etot   =    -10985.1952  EKtot   =      2314.4380  EPtot      =    -13299.6332
 BOND   =        15.6545  ANGLE   =        35.0493  DIHED      =        15.2320
 1-4 NB =         7.6807  1-4 EEL =       -70.5386  VDWAALS    =      2059.4537
 EELEC  =    -15362.1648  EHBOND  =         0.0000  RESTRAINT  =         0.0000
 EKCMT  =         0.0000  VIRIAL  =         0.0000  VOLUME     =     41462.4357
                                                    Density    =         0.9841
 DV/DL  =        -2.6458
 ------------------------------------------------------------------------------

      A V E R A G E S   O V E R   50000 S T E P S

 NSTEP =    50000   TIME(PS) =     120.000  TEMP(K) =   295.95  PRESS =     0.0
 Etot   =    -10459.2107  EKtot   =      2412.6845  EPtot      =    -12871.8953
 BOND   =        18.1974  ANGLE   =        32.3728  DIHED      =        19.6256
 1-4 NB =         7.9354  1-4 EEL =       -70.7420  VDWAALS    =      1909.2692
 EELEC  =    -14788.5536  EHBOND  =         0.0000  RESTRAINT  =         0.0000
 EKCMT  =         0.0000  VIRIAL  =         0.0000  VOLUME     =     41244.4988
                                                    Density    =         0.9893
 DV/DL  =        -1.8041
 ------------------------------------------------------------------------------

      R M S  F L U C T U A T I O N S

 NSTEP =    50000   TIME(PS) =     120.000  TEMP(K) =    10.61  PRESS =     0.0
 Etot   =       276.5360  EKtot   =        86.4756  EPtot      =       198.9157
 BOND   =         3.8467  ANGLE   =         3.2790  DIHED      =         2.8429
 1-4 NB =         0.8780  1-4 EEL =         1.8620  VDWAALS    =       101.9172
 EELEC  =       288.0876  EHBOND  =         0.0000  RESTRAINT  =         0.0000
 EKCMT  =         0.0000  VIRIAL  =         0.0000  VOLUME     =       339.1957
                                                    Density    =         0.0082
 DV/DL  =         0.5042
 ------------------------------------------------------------------------------

      A V E R A G E S   O V E R   50000 S T E P S

 NSTEP =    50000   TIME(PS) =     120.000  TEMP(K) =   295.95  PRESS =     0.0
 Etot   =    -10459.2107  EKtot   =      2412.6845  EPtot      =    -12871.8953
 BOND   =        18.1974  ANGLE   =        32.3728  DIHED      =        19.6256
 1-4 NB =         7.9354  1-4 EEL =       -70.7420  VDWAALS    =      1909.2692
 EELEC  =    -14788.5536  EHBOND  =         0.0000  RESTRAINT  =         0.0000
 EKCMT  =         0.0000  VIRIAL  =         0.0000  VOLUME     =     41244.4988
                                                    Density    =         0.9893
 DV/DL  =        -1.8041
 ------------------------------------------------------------------------------

      R M S  F L U C T U A T I O N S

 NSTEP =    50000   TIME(PS) =     120.000  TEMP(K) =    10.61  PRESS =     0.0
 Etot   =       276.5360  EKtot   =        86.4756  EPtot      =       198.9157
 BOND   =         3.8467  ANGLE   =         3.2790  DIHED      =         2.8429
 1-4 NB =         0.8780  1-4 EEL =         1.8620  VDWAALS    =       101.9172
 EELEC  =       288.0876  EHBOND  =         0.0000  RESTRAINT  =         0.0000
 EKCMT  =         0.0000  VIRIAL  =         0.0000  VOLUME     =       339.1957
                                                    Density    =         0.0082
 DV/DL  =         0.5042
 ------------------------------------------------------------------------------

      DV/DL, AVERAGES OVER   50000 STEPS

 NSTEP =    50000   TIME(PS) =     120.000  TEMP(K) =    10.61  PRESS =     0.0
 Etot   =         0.0000  EKtot   =         0.0000  EPtot      =        -1.7857
 BOND   =         0.0000  ANGLE   =         0.0000  DIHED      =         0.0000
 1-4 NB =         0.0000  1-4 EEL =         0.0000  VDWAALS    =         0.0000
 EELEC  =        -0.2295  EHBOND  =         0.0000  RESTRAINT  =         0.0000
 EKCMT  =         0.0000  VIRIAL  =         0.0000  VOLUME     =         0.0000
                                                    Density    =         0.0000
 DV/DL  =        -1.7857
 ------------------------------------------------------------------------------

      A V E R A G E S   O V E R   50000 S T E P S

 NSTEP =   100000   TIME(PS) =     220.000  TEMP(K) =   297.86  PRESS =     0.0
 Etot   =    -10407.8420  EKtot   =      2428.3020  EPtot      =    -12836.1440
 BOND   =        17.9632  ANGLE   =        32.3679  DIHED      =        19.3445
 1-4 NB =         7.9179  1-4 EEL =       -70.9567  VDWAALS    =      1897.9937
 EELEC  =    -14740.7746  EHBOND  =         0.0000  RESTRAINT  =         0.0000
 EKCMT  =         0.0000  VIRIAL  =         0.0000  VOLUME     =     41277.9686
                                                    Density    =         0.9885
 DV/DL  =        -1.8173
 ------------------------------------------------------------------------------

      R M S  F L U C T U A T I O N S

 NSTEP =   100000   TIME(PS) =     220.000  TEMP(K) =     4.79  PRESS =     0.0
 Etot   =        71.3348  EKtot   =        39.0526  EPtot      =        58.2285
 BOND   =         3.6178  ANGLE   =         3.1874  DIHED      =         2.7564
 1-4 NB =         0.8787  1-4 EEL =         1.9186  VDWAALS    =        59.6018
 EELEC  =        94.8859  EHBOND  =         0.0000  RESTRAINT  =         0.0000
 EKCMT  =         0.0000  VIRIAL  =         0.0000  VOLUME     =       311.6790
                                                    Density    =         0.0074
 DV/DL  =         0.5153
 ------------------------------------------------------------------------------

      A V E R A G E S   O V E R   50000 S T E P S

 NSTEP =   100000   TIME(PS) =     220.000  TEMP(K) =   297.86  PRESS =     0.0
 Etot   =    -10407.8420  EKtot   =      2428.3020  EPtot      =    -12836.1440
 BOND   =        17.9632  ANGLE   =        32.3679  DIHED      =        19.3445
 1-4 NB =         7.9179  1-4 EEL =       -70.9567  VDWAALS    =      1897.9937
 EELEC  =    -14740.7746  EHBOND  =         0.0000  RESTRAINT  =         0.0000
 EKCMT  =         0.0000  VIRIAL  =         0.0000  VOLUME     =     41277.9686
                                                    Density    =         0.9885
 DV/DL  =        -1.8173
 ------------------------------------------------------------------------------

      R M S  F L U C T U A T I O N S

 NSTEP =   100000   TIME(PS) =     220.000  TEMP(K) =     4.79  PRESS =     0.0
 Etot   =        71.3348  EKtot   =        39.0526  EPtot      =        58.2285
 BOND   =         3.6178  ANGLE   =         3.1874  DIHED      =         2.7564
 1-4 NB =         0.8787  1-4 EEL =         1.9186  VDWAALS    =        59.6018
 EELEC  =        94.8859  EHBOND  =         0.0000  RESTRAINT  =         0.0000
 EKCMT  =         0.0000  VIRIAL  =         0.0000  VOLUME     =       311.6790
                                                    Density    =         0.0074
 DV/DL  =         0.5153
 ------------------------------------------------------------------------------

      DV/DL, AVERAGES OVER   50000 STEPS

 NSTEP =   100000   TIME(PS) =     220.000  TEMP(K) =     4.79  PRESS =     0.0
 Etot   =         0.0000  EKtot   =         0.0000  EPtot      =        -1.7990
 BOND   =         0.0000  ANGLE   =         0.0000  DIHED      =         0.0000
 1-4 NB =         0.0000  1-4 EEL =         0.0000  VDWAALS    =         0.0000
 EELEC  =        -0.2295  EHBOND  =         0.0000  RESTRAINT  =         0.0000
 EKCMT  =         0.0000  VIRIAL  =         0.0000  VOLUME     =         0.0000
                                                    Density    =         0.0000
 DV/DL  =        -1.7990
 ------------------------------------------------------------------------------

      A V E R A G E S   O V E R   50000 S T E P S

 NSTEP =   500000   TIME(PS) =    1020.000  TEMP(K) =   297.06  PRESS =     0.0
 Etot   =    -10425.0046  EKtot   =      2421.7408  EPtot      =    -12846.7453
 BOND   =        18.4307  ANGLE   =        32.4780  DIHED      =        19.1937
 1-4 NB =         7.8939  1-4 EEL =       -74.7870  VDWAALS    =      1894.9873
 EELEC  =    -14744.9420  EHBOND  =         0.0000  RESTRAINT  =         0.0000
 EKCMT  =         0.0000  VIRIAL  =         0.0000  VOLUME     =     41186.9350
                                                    Density    =         0.9907
 DV/DL  =        -1.7902
 ------------------------------------------------------------------------------

      R M S  F L U C T U A T I O N S

 NSTEP =   500000   TIME(PS) =    1020.000  TEMP(K) =     4.47  PRESS =     0.0
 Etot   =        60.0855  EKtot   =        36.4374  EPtot      =        51.5016
 BOND   =         3.9201  ANGLE   =         3.2793  DIHED      =         2.7010
 1-4 NB =         0.8639  1-4 EEL =         1.6504  VDWAALS    =        55.0750
 EELEC  =        83.0516  EHBOND  =         0.0000  RESTRAINT  =         0.0000
 EKCMT  =         0.0000  VIRIAL  =         0.0000  VOLUME     =       290.3377
                                                    Density    =         0.0070
 DV/DL  =         0.5178
 ------------------------------------------------------------------------------

      A V E R A G E S   O V E R   50000 S T E P S

 NSTEP =   500000   TIME(PS) =    1020.000  TEMP(K) =   297.06  PRESS =     0.0
 Etot   =    -10425.0046  EKtot   =      2421.7408  EPtot      =    -12846.7453
 BOND   =        18.4307  ANGLE   =        32.4780  DIHED      =        19.1937
 1-4 NB =         7.8939  1-4 EEL =       -74.7870  VDWAALS    =      1894.9873
 EELEC  =    -14744.9420  EHBOND  =         0.0000  RESTRAINT  =         0.0000
 EKCMT  =         0.0000  VIRIAL  =         0.0000  VOLUME     =     41186.9350
                                                    Density    =         0.9907
 DV/DL  =        -1.7902
 ------------------------------------------------------------------------------

      R M S  F L U C T U A T I O N S

 NSTEP =   500000   TIME(PS) =    1020.000  TEMP(K) =     4.47  PRESS =     0.0
 Etot   =        60.0855  EKtot   =        36.4374  EPtot      =        51.5016
 BOND   =         3.9201  ANGLE   =         3.2793  DIHED      =         2.7010
 1-4 NB =         0.8639  1-4 EEL =         1.6504  VDWAALS    =        55.0750
 EELEC  =        83.0516  EHBOND  =         0.0000  RESTRAINT  =         0.0000
 EKCMT  =         0.0000  VIRIAL  =         0.0000  VOLUME     =       290.3377
                                                    Density    =         0.0070
 DV/DL  =         0.5178
 ------------------------------------------------------------------------------

      DV/DL, AVERAGES OVER   50000 STEPS

 NSTEP =   500000   TIME(PS) =    1020.000  TEMP(K) =     4.47  PRESS =     0.0
 Etot   =         0.0000  EKtot   =         0.0000  EPtot      =        -1.7725
 BOND   =         0.0000  ANGLE   =         0.0000  DIHED      =         0.0000
 1-4 NB =         0.0000  1-4 EEL =         0.0000  VDWAALS    =         0.0000
 EELEC  =        -0.2295  EHBOND  =         0.0000  RESTRAINT  =         0.0000
 EKCMT  =         0.0000  VIRIAL  =         0.0000  VOLUME     =         0.0000
                                                    Density    =         0.0000
 DV/DL  =        -1.7725
 ------------------------------------------------------------------------------

      A V E R A G E S   O V E R  500000 S T E P S

 NSTEP =   500000   TIME(PS) =    1020.000  TEMP(K) =   297.16  PRESS =     0.0
 Etot   =    -10422.8756  EKtot   =      2422.6207  EPtot      =    -12845.4963
 BOND   =        18.2998  ANGLE   =        32.5770  DIHED      =        19.1151
 1-4 NB =         7.9211  1-4 EEL =       -72.8500  VDWAALS    =      1898.9678
 EELEC  =    -14749.5270  EHBOND  =         0.0000  RESTRAINT  =         0.0000
 EKCMT  =         0.0000  VIRIAL  =         0.0000  VOLUME     =     41251.5344
                                                    Density    =         0.9891
 DV/DL  =        -1.8090
 ------------------------------------------------------------------------------

      R M S  F L U C T U A T I O N S

 NSTEP =   500000   TIME(PS) =    1020.000  TEMP(K) =     5.53  PRESS =     0.0
 Etot   =       108.8198  EKtot   =        45.1002  EPtot      =        82.3993
 BOND   =         3.8261  ANGLE   =         3.2839  DIHED      =         2.7578
 1-4 NB =         0.8750  1-4 EEL =         2.6139  VDWAALS    =        62.7022
 EELEC  =       125.0953  EHBOND  =         0.0000  RESTRAINT  =         0.0000
 EKCMT  =         0.0000  VIRIAL  =         0.0000  VOLUME     =       310.5669
                                                    Density    =         0.0074
 DV/DL  =         0.5044
 ------------------------------------------------------------------------------

      A V E R A G E S   O V E R  500000 S T E P S

 NSTEP =   500000   TIME(PS) =    1020.000  TEMP(K) =   297.16  PRESS =     0.0
 Etot   =    -10422.8756  EKtot   =      2422.6207  EPtot      =    -12845.4963
 BOND   =        18.2998  ANGLE   =        32.5770  DIHED      =        19.1151
 1-4 NB =         7.9211  1-4 EEL =       -72.8500  VDWAALS    =      1898.9678
 EELEC  =    -14749.5270  EHBOND  =         0.0000  RESTRAINT  =         0.0000
 EKCMT  =         0.0000  VIRIAL  =         0.0000  VOLUME     =     41251.5344
                                                    Density    =         0.9891
 DV/DL  =        -1.8090
 ------------------------------------------------------------------------------

      R M S  F L U C T U A T I O N S

 NSTEP =   500000   TIME(PS) =    1020.000  TEMP(K) =     5.53  PRESS =     0.0
 Etot   =       108.8198  EKtot   =        45.1002  EPtot      =        82.3993
 BOND   =         3.8261  ANGLE   =         3.2839  DIHED      =         2.7578
 1-4 NB =         0.8750  1-4 EEL =         2.6139  VDWAALS    =        62.7022
 EELEC  =       125.0953  EHBOND  =         0.0000  RESTRAINT  =         0.0000
 EKCMT  =         0.0000  VIRIAL  =         0.0000  VOLUME     =       310.5669
                                                    Density    =         0.0074
 DV/DL  =         0.5044
 ------------------------------------------------------------------------------

      DV/DL, AVERAGES OVER  500000 STEPS

 NSTEP =   500000   TIME(PS) =    1020.000  TEMP(K) =     5.53  PRESS =     0.0
 Etot   =         0.0000  EKtot   =         0.0000  EPtot      =        -1.7907
 BOND   =         0.0000  ANGLE   =         0.0000  DIHED      =         0.0000
 1-4 NB =         0.0000  1-4 EEL =         0.0000  VDWAALS    =         0.0000
 EELEC  =        -0.2295  EHBOND  =         0.0000  RESTRAINT  =         0.0000
 EKCMT  =         0.0000  VIRIAL  =         0.0000  VOLUME     =         0.0000
                                                    Density    =         0.0000
 DV/DL  =        -1.7907
 ------------------------------------------------------------------------------
