-------------------------------------------------------
          Amber 16 PMEMD                              2016
          -------------------------------------------------------

  [-O]verwriting output

File Assignments:

 Here is the input file:

TI/FEP, NpT, vdW+bonded transformation
 &cntrl
 ! please adjust namelist parameters to your needs!

 ! parameters for general MD
 imin = 0, nstlim = 500000, irest = 1, ntx = 5, dt = 0.002,
 ntt = 3, temp0 = 298.0, gamma_ln = 2.0, ig = -1,
 ntb = 2,
 ntp = 1, barostat = 2, pres0 = 1.01325, taup = 2.0,
 ntwe = 100, ntwx = 10000, ntpr = 1000, ntwr = 50000, ntave = 50000,
 ioutfm = 1, iwrap = 1, ntxo = 2,

 ! parameters for alchemical free energy simulation
 ntc = 2, ntf = 1,
 noshakemask = ':1,2',

 icfe = 1, ifsc = 1, clambda = 0.0, scalpha = 0.5, scbeta = 12.0,
 ifmbar = 1, mbar_lambda = 0.0 0.0479 0.1150 0.2063 0.3160 0.4373 0.5626 0.6839
 mbar_states = 12, bar_intervall = 1000,   ! ntpr = bar_intervall for alchemica

 timask1=':1', timask2=':2',
scmask1=':1@H34',
scmask2=':2@Cl18',
 crgmask = ':1@H34 | :2@Cl18',
 /
 &ewald
 /

Note: ig = -1. Setting random seed to   693071 based on wallclock time in
      microseconds.

--------------------------------------------------------------------------------
   1.  RESOURCE   USE:
--------------------------------------------------------------------------------

 getting box info from netcdf restart file
 NATOM  =   46594 NTYPES =      28 NBONH =   43475 MBONA  =    3194
 NTHETH =    6827 MTHETA =    4353 NPHIH =   13979 MPHIA  =   13703
 NHPARM =       0 NPARM  =       0 NNB   =   87745 NRES   =   13889
 NBONA  =    3194 NTHETA =    4353 NPHIA =   13703 NUMBND =      89
 NUMANG =     195 NPTRA  =     203 NATYP =      50 NPHB   =       1
 IFBOX  =       1 NMXRS  =      43 IFCAP =       0 NEXTRA =       0
 NCOPY  =       0

     BOX TYPE: RECTILINEAR

--------------------------------------------------------------------------------
   2.  CONTROL  DATA  FOR  THE  RUN
--------------------------------------------------------------------------------

L0

General flags:
     imin    =       0, nmropt  =       0

Nature and format of input:
     ntx     =       5, irest   =       1, ntrx    =       1

Nature and format of output:
     ntxo    =       2, ntpr    =    1000, ntrx    =       1, ntwr    =   50000
     iwrap   =       1, ntwx    =   10000, ntwv    =       0, ntwe    =     100
     ioutfm  =       1, ntwprt  =       0, idecomp =       0, rbornstat=      0

Potential function:
     ntf     =       1, ntb     =       2, igb     =       0, nsnb    =      25
     ipol    =       0, gbsa    =       0, iesp    =       0
     dielc   =   1.00000, cut     =   8.00000, intdiel =   1.00000

Frozen or restrained atoms:
     ibelly  =       0, ntr     =       0

Molecular dynamics:
     nstlim  =    500000, nscm    =      1000, nrespa  =         1
     t       =   0.00000, dt      =   0.00200, vlimit  =  -1.00000

Langevin dynamics temperature regulation:
     ig      =  693071
     temp0   = 298.00000, tempi   =   0.00000, gamma_ln=   2.00000

Pressure regulation:
     ntp     =       1
     pres0   =   1.01325, comp    =  44.60000, taup    =   2.00000
     Monte-Carlo Barostat:
     mcbarint  =     100

SHAKE:
     ntc     =       2, jfastw  =       0
     tol     =   0.00001

Free energy options:
     icfe    =       1, ifsc    =       1, klambda =       1
     clambda =  0.0000, scalpha =  0.5000, scbeta  = 12.0000
     sceeorder =       2
     dynlmb =  0.0000 logdvdl =       0

FEP MBAR options:
     ifmbar  =       1,  bar_intervall =     1000
     mbar_states =      12

Ewald parameters:
     verbose =       0, ew_type =       0, nbflag  =       1, use_pme =       1
     vdwmeth =       1, eedmeth =       1, netfrc  =       1
     Box X =   87.894   Box Y =   67.207   Box Z =   78.608
     Alpha =   90.000   Beta  =   90.000   Gamma =   90.000
     NFFT1 =   96       NFFT2 =   64       NFFT3 =   80
     Cutoff=    8.000   Tol   =0.100E-04
     Ewald Coefficient =  0.34864
     Interpolation order =    4
     TI Mask 1 :1; matches     43 atoms
     TI Mask 2 :2; matches     43 atoms
     TI region 1:   46551 atoms
     TI region 2:   46551 atoms
     SC Mask 1 :1@H34; matches      1 atoms
     SC Mask 2 :2@Cl18; matches      1 atoms
Removing charge of       0.1510 from atom      43
Removing charge of      -0.0609 from atom      86
Total charge of   0.09010100 removed from       2 atoms

    MBAR - lambda values considered:
      12 total:  0.0000 0.0479 0.1150 0.2063 0.3160 0.4373 0.5626 0.6839 0.7936 0.8849 0.9520 1.0000
    Extra energies will be computed    500 times.
 Noshake mask :1,2; matches      86 atoms.

--------------------------------------------------------------------------------
   3.  ATOMIC COORDINATES AND VELOCITIES
--------------------------------------------------------------------------------

L0
 begin time read from input coords =    20.000 ps

     Molecule     1 is partially softcore
     Molecule     2 is partially softcore
 Number of triangulated 3-point waters found:    13488
   Removing shake constraints from C22   L0    1 -- H41   L0    1
   Removing shake constraints from C22   L0    1 -- H42   L0    1
   Removing shake constraints from C21   L0    1 -- H39   L0    1
   Removing shake constraints from C21   L0    1 -- H40   L0    1
   Removing shake constraints from C20   L0    1 -- H38   L0    1
   Removing shake constraints from C19   L0    1 -- H37   L0    1
   Removing shake constraints from C18   L0    1 -- H36   L0    1
   Removing shake constraints from C15   L0    1 -- H35   L0    1
   Removing shake constraints from C14   L0    1 -- H34   L0    1
   Removing shake constraints from C13   L0    1 -- H33   L0    1
   Removing shake constraints from C10   L0    1 -- H32   L0    1
   Removing shake constraints from C9    L0    1 -- H31   L0    1
   Removing shake constraints from C8    L0    1 -- H30   L0    1
   Removing shake constraints from N5    L0    1 -- H29   L0    1
   Removing shake constraints from N4    L0    1 -- H43   L0    1
   Removing shake constraints from N4    L0    1 -- H28   L0    1
   Removing shake constraints from C1    L0    1 -- H25   L0    1
   Removing shake constraints from C1    L0    1 -- H26   L0    1
   Removing shake constraints from C1    L0    1 -- H27   L0    1
   Removing shake constraints from C23   L1    2 -- H41   L1    2
   Removing shake constraints from C23   L1    2 -- H42   L1    2
   Removing shake constraints from C22   L1    2 -- H39   L1    2
   Removing shake constraints from C22   L1    2 -- H40   L1    2
   Removing shake constraints from C21   L1    2 -- H38   L1    2
   Removing shake constraints from C20   L1    2 -- H37   L1    2
   Removing shake constraints from C13   L1    2 -- H34   L1    2
   Removing shake constraints from C16   L1    2 -- H35   L1    2
   Removing shake constraints from C19   L1    2 -- H36   L1    2
   Removing shake constraints from C10   L1    2 -- H33   L1    2
   Removing shake constraints from C9    L1    2 -- H32   L1    2
   Removing shake constraints from C8    L1    2 -- H31   L1    2
   Removing shake constraints from N5    L1    2 -- H30   L1    2
   Removing shake constraints from N4    L1    2 -- H43   L1    2
   Removing shake constraints from N4    L1    2 -- H29   L1    2
   Removing shake constraints from C1    L1    2 -- H26   L1    2
   Removing shake constraints from C1    L1    2 -- H27   L1    2
   Removing shake constraints from C1    L1    2 -- H28   L1    2
 WARNING: SHAKEn bond for atoms       14       43 is partially softcore.
 Coordinates for common atoms will be synchronized from V0.
 Consider using noshake mask or disabling SHAKE.

 Number of shake restraints removed in TI region  1 :       19
 Number of shake restraints removed in TI region  2 :       18

     Sum of charges for TI region  1 =  -0.15102723
     Assuming uniform neutralizing plasma

     Sum of charges for TI region  2 =   0.06096676
     Assuming uniform neutralizing plasma

--------------------------------------------------------------------------------
   4.  RESULTS
 NSTEP =     1000   TIME(PS) =      22.000  TEMP(K) =   282.55  PRESS =     0.0
 Etot   =   -117130.6880  EKtot   =     27006.1992  EPtot      =   -144136.8872
 BOND   =      1177.5858  ANGLE   =      3048.2260  DIHED      =      4856.5249
 1-4 NB =      1423.7173  1-4 EEL =     16026.6532  VDWAALS    =     17546.0989
 EELEC  =   -188215.6932  EHBOND  =         0.0000  RESTRAINT  =         0.0000
 EKCMT  =         0.0000  VIRIAL  =         0.0000  VOLUME     =    464342.7282
                                                    Density    =         1.0261
 DV/DL  =         0.6132
 ------------------------------------------------------------------------------

      A V E R A G E S   O V E R   50000 S T E P S

 NSTEP =    50000   TIME(PS) =     120.000  TEMP(K) =   296.67  PRESS =     0.0
 Etot   =   -111614.2337  EKtot   =     28356.2994  EPtot      =   -139970.5331
 BOND   =      1186.0338  ANGLE   =      3063.9899  DIHED      =      4887.6046
 1-4 NB =      1408.8057  1-4 EEL =     16002.3433  VDWAALS    =     15729.3023
 EELEC  =   -182248.6128  EHBOND  =         0.0000  RESTRAINT  =         0.0000
 EKCMT  =         0.0000  VIRIAL  =         0.0000  VOLUME     =    463410.2290
                                                    Density    =         1.0281
 DV/DL  =         0.5038
 ------------------------------------------------------------------------------

      R M S  F L U C T U A T I O N S

 NSTEP =    50000   TIME(PS) =     120.000  TEMP(K) =    10.32  PRESS =     0.0
 Etot   =      3112.3831  EKtot   =       986.7962  EPtot      =      2147.5877
 BOND   =        48.5973  ANGLE   =        98.6149  DIHED      =        34.1484
 1-4 NB =        16.2776  1-4 EEL =        42.6030  VDWAALS    =       901.8359
 EELEC  =      2886.1939  EHBOND  =         0.0000  RESTRAINT  =         0.0000
 EKCMT  =         0.0000  VIRIAL  =         0.0000  VOLUME     =      1392.2081
                                                    Density    =         0.0031
 DV/DL  =         1.9947
 ------------------------------------------------------------------------------

      A V E R A G E S   O V E R   50000 S T E P S

 NSTEP =    50000   TIME(PS) =     120.000  TEMP(K) =   296.67  PRESS =     0.0
 Etot   =   -111614.2450  EKtot   =     28356.2881  EPtot      =   -139970.5331
 BOND   =      1186.0338  ANGLE   =      3063.9899  DIHED      =      4887.6046
 1-4 NB =      1408.8057  1-4 EEL =     16002.3433  VDWAALS    =     15729.3023
 EELEC  =   -182248.6128  EHBOND  =         0.0000  RESTRAINT  =         0.0000
 EKCMT  =         0.0000  VIRIAL  =         0.0000  VOLUME     =    463410.2290
                                                    Density    =         1.0283
 DV/DL  =         0.5038
 ------------------------------------------------------------------------------

      R M S  F L U C T U A T I O N S

 NSTEP =    50000   TIME(PS) =     120.000  TEMP(K) =    10.32  PRESS =     0.0
 Etot   =      3112.3791  EKtot   =       986.7928  EPtot      =      2147.5877
 BOND   =        48.5973  ANGLE   =        98.6149  DIHED      =        34.1484
 1-4 NB =        16.2776  1-4 EEL =        42.6030  VDWAALS    =       901.8359
 EELEC  =      2886.1939  EHBOND  =         0.0000  RESTRAINT  =         0.0000
 EKCMT  =         0.0000  VIRIAL  =         0.0000  VOLUME     =      1392.2081
                                                    Density    =         0.0031
 DV/DL  =         1.9947
 ------------------------------------------------------------------------------

      DV/DL, AVERAGES OVER   50000 STEPS

 NSTEP =    50000   TIME(PS) =     120.000  TEMP(K) =    10.32  PRESS =     0.0
 Etot   =         0.0000  EKtot   =         0.0000  EPtot      =         0.4987
 BOND   =         0.0000  ANGLE   =         0.0000  DIHED      =         0.0000
 1-4 NB =         0.0000  1-4 EEL =         0.0000  VDWAALS    =        -0.2832
 EELEC  =        -0.1933  EHBOND  =         0.0000  RESTRAINT  =         0.0000
 EKCMT  =         0.0000  VIRIAL  =         0.0000  VOLUME     =         0.0000
                                                    Density    =         0.0000
 DV/DL  =         0.4987
 ------------------------------------------------------------------------------

      A V E R A G E S   O V E R   50000 S T E P S

 NSTEP =   100000   TIME(PS) =     220.000  TEMP(K) =   298.31  PRESS =     0.0
 Etot   =   -111189.4060  EKtot   =     28512.5580  EPtot      =   -139701.9640
 BOND   =      1190.3331  ANGLE   =      3073.7970  DIHED      =      4881.6974
 1-4 NB =      1411.3577  1-4 EEL =     15998.6268  VDWAALS    =     15576.7299
 EELEC  =   -181834.5059  EHBOND  =         0.0000  RESTRAINT  =         0.0000
 EKCMT  =         0.0000  VIRIAL  =         0.0000  VOLUME     =    462089.0345
                                                    Density    =         1.0311
 DV/DL  =         0.8519
 ------------------------------------------------------------------------------

      R M S  F L U C T U A T I O N S

 NSTEP =   100000   TIME(PS) =     220.000  TEMP(K) =     1.36  PRESS =     0.0
 Etot   =       210.9975  EKtot   =       129.5821  EPtot      =       171.0266
 BOND   =        29.0194  ANGLE   =        41.8607  DIHED      =        24.1599
 1-4 NB =        15.1786  1-4 EEL =        42.6016  VDWAALS    =       180.0498
 EELEC  =       276.4521  EHBOND  =         0.0000  RESTRAINT  =         0.0000
 EKCMT  =         0.0000  VIRIAL  =         0.0000  VOLUME     =       851.3834
                                                    Density    =         0.0019
 DV/DL  =         1.9182
 ------------------------------------------------------------------------------

      A V E R A G E S   O V E R   50000 S T E P S

 NSTEP =   100000   TIME(PS) =     220.000  TEMP(K) =   298.31  PRESS =     0.0
 Etot   =   -111189.3656  EKtot   =     28512.5984  EPtot      =   -139701.9640
 BOND   =      1190.3331  ANGLE   =      3073.7970  DIHED      =      4881.6974
 1-4 NB =      1411.3577  1-4 EEL =     15998.6268  VDWAALS    =     15576.7299
 EELEC  =   -181834.5059  EHBOND  =         0.0000  RESTRAINT  =         0.0000
 EKCMT  =         0.0000  VIRIAL  =         0.0000  VOLUME     =    462089.0345
                                                    Density    =         1.0312
 DV/DL  =         0.8519
 ------------------------------------------------------------------------------

      R M S  F L U C T U A T I O N S

 NSTEP =   100000   TIME(PS) =     220.000  TEMP(K) =     1.36  PRESS =     0.0
 Etot   =       210.9959  EKtot   =       129.5858  EPtot      =       171.0266
 BOND   =        29.0194  ANGLE   =        41.8607  DIHED      =        24.1599
 1-4 NB =        15.1786  1-4 EEL =        42.6016  VDWAALS    =       180.0498
 EELEC  =       276.4521  EHBOND  =         0.0000  RESTRAINT  =         0.0000
 EKCMT  =         0.0000  VIRIAL  =         0.0000  VOLUME     =       851.3834
                                                    Density    =         0.0019
 DV/DL  =         1.9182
 ------------------------------------------------------------------------------

      DV/DL, AVERAGES OVER   50000 STEPS

 NSTEP =   100000   TIME(PS) =     220.000  TEMP(K) =     1.36  PRESS =     0.0
 Etot   =         0.0000  EKtot   =         0.0000  EPtot      =         0.8435
 BOND   =         0.0000  ANGLE   =         0.0000  DIHED      =         0.0000
 1-4 NB =         0.0000  1-4 EEL =         0.0000  VDWAALS    =        -0.2840
 EELEC  =        -0.1933  EHBOND  =         0.0000  RESTRAINT  =         0.0000
 EKCMT  =         0.0000  VIRIAL  =         0.0000  VOLUME     =         0.0000
                                                    Density    =         0.0000
 DV/DL  =         0.8435
 ------------------------------------------------------------------------------

      A V E R A G E S   O V E R   50000 S T E P S

 NSTEP =   500000   TIME(PS) =    1020.000  TEMP(K) =   298.14  PRESS =     0.0
 Etot   =   -111200.1325  EKtot   =     28496.7649  EPtot      =   -139696.8975
 BOND   =      1186.9988  ANGLE   =      3067.0195  DIHED      =      4885.6587
 1-4 NB =      1410.3235  1-4 EEL =     16010.1265  VDWAALS    =     15602.5622
 EELEC  =   -181859.5866  EHBOND  =         0.0000  RESTRAINT  =         0.0000
 EKCMT  =         0.0000  VIRIAL  =         0.0000  VOLUME     =    462418.7546
                                                    Density    =         1.0303
 DV/DL  =         1.3629
 ------------------------------------------------------------------------------

      R M S  F L U C T U A T I O N S

 NSTEP =   500000   TIME(PS) =    1020.000  TEMP(K) =     1.35  PRESS =     0.0
 Etot   =       230.1747  EKtot   =       129.3216  EPtot      =       186.5028
 BOND   =        28.6928  ANGLE   =        42.1537  DIHED      =        23.3792
 1-4 NB =        15.4438  1-4 EEL =        42.5801  VDWAALS    =       176.6535
 EELEC  =       285.8613  EHBOND  =         0.0000  RESTRAINT  =         0.0000
 EKCMT  =         0.0000  VIRIAL  =         0.0000  VOLUME     =       915.6292
                                                    Density    =         0.0020
 DV/DL  =         1.8240
 ------------------------------------------------------------------------------

      A V E R A G E S   O V E R   50000 S T E P S

 NSTEP =   500000   TIME(PS) =    1020.000  TEMP(K) =   298.14  PRESS =     0.0
 Etot   =   -111200.0760  EKtot   =     28496.8215  EPtot      =   -139696.8975
 BOND   =      1186.9988  ANGLE   =      3067.0195  DIHED      =      4885.6587
 1-4 NB =      1410.3235  1-4 EEL =     16010.1265  VDWAALS    =     15602.5622
 EELEC  =   -181859.5866  EHBOND  =         0.0000  RESTRAINT  =         0.0000
 EKCMT  =         0.0000  VIRIAL  =         0.0000  VOLUME     =    462418.7546
                                                    Density    =         1.0305
 DV/DL  =         1.3629
 ------------------------------------------------------------------------------

      R M S  F L U C T U A T I O N S

 NSTEP =   500000   TIME(PS) =    1020.000  TEMP(K) =     1.35  PRESS =     0.0
 Etot   =       230.1771  EKtot   =       129.3302  EPtot      =       186.5028
 BOND   =        28.6928  ANGLE   =        42.1537  DIHED      =        23.3792
 1-4 NB =        15.4438  1-4 EEL =        42.5801  VDWAALS    =       176.6535
 EELEC  =       285.8613  EHBOND  =         0.0000  RESTRAINT  =         0.0000
 EKCMT  =         0.0000  VIRIAL  =         0.0000  VOLUME     =       915.6292
                                                    Density    =         0.0020
 DV/DL  =         1.8240
 ------------------------------------------------------------------------------

      DV/DL, AVERAGES OVER   50000 STEPS

 NSTEP =   500000   TIME(PS) =    1020.000  TEMP(K) =     1.35  PRESS =     0.0
 Etot   =         0.0000  EKtot   =         0.0000  EPtot      =         1.3495
 BOND   =         0.0000  ANGLE   =         0.0000  DIHED      =         0.0000
 1-4 NB =         0.0000  1-4 EEL =         0.0000  VDWAALS    =        -0.2838
 EELEC  =        -0.1933  EHBOND  =         0.0000  RESTRAINT  =         0.0000
 EKCMT  =         0.0000  VIRIAL  =         0.0000  VOLUME     =         0.0000
                                                    Density    =         0.0000
 DV/DL  =         1.3495
 ------------------------------------------------------------------------------

      A V E R A G E S   O V E R  500000 S T E P S

 NSTEP =   500000   TIME(PS) =    1020.000  TEMP(K) =   297.98  PRESS =     0.0
 Etot   =   -111227.5605  EKtot   =     28481.4587  EPtot      =   -139709.0192
 BOND   =      1188.3447  ANGLE   =      3069.1689  DIHED      =      4877.7978
 1-4 NB =      1410.1857  1-4 EEL =     15985.8495  VDWAALS    =     15607.9669
 EELEC  =   -181848.3328  EHBOND  =         0.0000  RESTRAINT  =         0.0000
 EKCMT  =         0.0000  VIRIAL  =         0.0000  VOLUME     =    462641.6947
                                                    Density    =         1.0298
 DV/DL  =         0.9461
 ------------------------------------------------------------------------------

      R M S  F L U C T U A T I O N S

 NSTEP =   500000   TIME(PS) =    1020.000  TEMP(K) =     3.54  PRESS =     0.0
 Etot   =      1015.5093  EKtot   =       337.9046  EPtot      =       706.9772
 BOND   =        31.5708  ANGLE   =        50.7260  DIHED      =        25.9196
 1-4 NB =        15.5507  1-4 EEL =        45.8221  VDWAALS    =       336.3219
 EELEC  =       962.8373  EHBOND  =         0.0000  RESTRAINT  =         0.0000
 EKCMT  =         0.0000  VIRIAL  =         0.0000  VOLUME     =      1088.6550
                                                    Density    =         0.0024
 DV/DL  =         1.9959
 ------------------------------------------------------------------------------

      A V E R A G E S   O V E R  500000 S T E P S

 NSTEP =   500000   TIME(PS) =    1020.000  TEMP(K) =   297.98  PRESS =     0.0
 Etot   =   -111227.5426  EKtot   =     28481.4766  EPtot      =   -139709.0192
 BOND   =      1188.3447  ANGLE   =      3069.1689  DIHED      =      4877.7978
 1-4 NB =      1410.1857  1-4 EEL =     15985.8495  VDWAALS    =     15607.9669
 EELEC  =   -181848.3328  EHBOND  =         0.0000  RESTRAINT  =         0.0000
 EKCMT  =         0.0000  VIRIAL  =         0.0000  VOLUME     =    462641.6947
                                                    Density    =         1.0300
 DV/DL  =         0.9461
 ------------------------------------------------------------------------------

      R M S  F L U C T U A T I O N S

 NSTEP =   500000   TIME(PS) =    1020.000  TEMP(K) =     3.54  PRESS =     0.0
 Etot   =      1015.5082  EKtot   =       337.9011  EPtot      =       706.9772
 BOND   =        31.5708  ANGLE   =        50.7260  DIHED      =        25.9196
 1-4 NB =        15.5507  1-4 EEL =        45.8221  VDWAALS    =       336.3219
 EELEC  =       962.8373  EHBOND  =         0.0000  RESTRAINT  =         0.0000
 EKCMT  =         0.0000  VIRIAL  =         0.0000  VOLUME     =      1088.6550
                                                    Density    =         0.0024
 DV/DL  =         1.9959
 ------------------------------------------------------------------------------

      DV/DL, AVERAGES OVER  500000 STEPS

 NSTEP =   500000   TIME(PS) =    1020.000  TEMP(K) =     3.54  PRESS =     0.0
 Etot   =         0.0000  EKtot   =         0.0000  EPtot      =         0.9370
 BOND   =         0.0000  ANGLE   =         0.0000  DIHED      =         0.0000
 1-4 NB =         0.0000  1-4 EEL =         0.0000  VDWAALS    =        -0.2836
 EELEC  =        -0.1933  EHBOND  =         0.0000  RESTRAINT  =         0.0000
 EKCMT  =         0.0000  VIRIAL  =         0.0000  VOLUME     =         0.0000
                                                    Density    =         0.0000
 DV/DL  =         0.9370
 ------------------------------------------------------------------------------
