-------------------------------------------------------
          Amber 16 PMEMD                              2016
          -------------------------------------------------------

  [-O]verwriting output

File Assignments:

 Here is the input file:

TI/FEP, NpT, decharge transformation
 &cntrl
 ! please adjust namelist parameters to your needs!

 ! parameters for general MD
 imin = 0, nstlim = 500000, irest = 1, ntx = 5, dt = 0.002,
 ntt = 3, temp0 = 298.0, gamma_ln = 2.0, ig = -1,
 ntb = 2,
 ntp = 1, barostat = 2, pres0 = 1.01325, taup = 2.0,
 ntwe = 100, ntwx = 10000, ntpr = 1000, ntwr = 50000, ntave = 50000,
 ioutfm = 1, iwrap = 1, ntxo = 2,

 ! parameters for alchemical free energy simulation
 ntc = 2, ntf = 1,
 noshakemask = ':1,2',

 icfe = 1, ifsc = 0, clambda = 0.50, scalpha = 0.5, scbeta = 12.0,
 ifmbar = 1, mbar_lambda = 0.00 0.25 0.50 0.75 1.00,
 mbar_states = 5, bar_intervall = 1000,   ! ntpr = bar_intervall for alchemical

 timask1=':1', timask2=':2',
scmask1='',
scmask2='',
 crgmask = ':2@H34',
 /
 &ewald
 /

Note: ig = -1. Setting random seed to   953218 based on wallclock time in
      microseconds.

--------------------------------------------------------------------------------
   1.  RESOURCE   USE:
--------------------------------------------------------------------------------

 getting box info from netcdf restart file
 NATOM  =   46594 NTYPES =      28 NBONH =   43476 MBONA  =    3193
 NTHETH =    6829 MTHETA =    4351 NPHIH =   13982 MPHIA  =   13700
 NHPARM =       0 NPARM  =       0 NNB   =   87745 NRES   =   13889
 NBONA  =    3193 NTHETA =    4351 NPHIA =   13700 NUMBND =      89
 NUMANG =     195 NPTRA  =     203 NATYP =      50 NPHB   =       1
 IFBOX  =       1 NMXRS  =      43 IFCAP =       0 NEXTRA =       0
 NCOPY  =       0

     BOX TYPE: RECTILINEAR

--------------------------------------------------------------------------------
   2.  CONTROL  DATA  FOR  THE  RUN
--------------------------------------------------------------------------------

L0

General flags:
     imin    =       0, nmropt  =       0

Nature and format of input:
     ntx     =       5, irest   =       1, ntrx    =       1

Nature and format of output:
     ntxo    =       2, ntpr    =    1000, ntrx    =       1, ntwr    =   50000
     iwrap   =       1, ntwx    =   10000, ntwv    =       0, ntwe    =     100
     ioutfm  =       1, ntwprt  =       0, idecomp =       0, rbornstat=      0

Potential function:
     ntf     =       1, ntb     =       2, igb     =       0, nsnb    =      25
     ipol    =       0, gbsa    =       0, iesp    =       0
     dielc   =   1.00000, cut     =   8.00000, intdiel =   1.00000

Frozen or restrained atoms:
     ibelly  =       0, ntr     =       0

Molecular dynamics:
     nstlim  =    500000, nscm    =      1000, nrespa  =         1
     t       =   0.00000, dt      =   0.00200, vlimit  =  -1.00000

Langevin dynamics temperature regulation:
     ig      =  953218
     temp0   = 298.00000, tempi   =   0.00000, gamma_ln=   2.00000

Pressure regulation:
     ntp     =       1
     pres0   =   1.01325, comp    =  44.60000, taup    =   2.00000
     Monte-Carlo Barostat:
     mcbarint  =     100

SHAKE:
     ntc     =       2, jfastw  =       0
     tol     =   0.00001

Free energy options:
     icfe    =       1, ifsc    =       0, klambda =       1
     clambda =  0.5000, scalpha =  0.5000, scbeta  = 12.0000
     sceeorder =       2
     dynlmb =  0.0000 logdvdl =       0

FEP MBAR options:
     ifmbar  =       1,  bar_intervall =     1000
     mbar_states =       5

Ewald parameters:
     verbose =       0, ew_type =       0, nbflag  =       1, use_pme =       1
     vdwmeth =       1, eedmeth =       1, netfrc  =       1
     Box X =   87.894   Box Y =   67.207   Box Z =   78.608
     Alpha =   90.000   Beta  =   90.000   Gamma =   90.000
     NFFT1 =   96       NFFT2 =   64       NFFT3 =   80
     Cutoff=    8.000   Tol   =0.100E-04
     Ewald Coefficient =  0.34864
     Interpolation order =    4
     TI Mask 1 :1; matches     43 atoms
     TI Mask 2 :2; matches     43 atoms
     TI region 1:   46551 atoms
     TI region 2:   46551 atoms
Removing charge of       0.1510 from atom      86
Total charge of   0.15104700 removed from       1 atoms

    MBAR - lambda values considered:
       5 total:  0.0000 0.2500 0.5000 0.7500 1.0000
    Extra energies will be computed    500 times.
     Checking for mismatched coordinates.
 Noshake mask :1,2; matches      86 atoms.

--------------------------------------------------------------------------------
   3.  ATOMIC COORDINATES AND VELOCITIES
--------------------------------------------------------------------------------

L0
 begin time read from input coords =    20.000 ps

 Number of triangulated 3-point waters found:    13488
   Removing shake constraints from C22   L0    1 -- H41   L0    1
   Removing shake constraints from C22   L0    1 -- H42   L0    1
   Removing shake constraints from C21   L0    1 -- H39   L0    1
   Removing shake constraints from C21   L0    1 -- H40   L0    1
   Removing shake constraints from C20   L0    1 -- H38   L0    1
   Removing shake constraints from C19   L0    1 -- H37   L0    1
   Removing shake constraints from C18   L0    1 -- H36   L0    1
   Removing shake constraints from C15   L0    1 -- H35   L0    1
   Removing shake constraints from C14   L0    1 -- H34   L0    1
   Removing shake constraints from C13   L0    1 -- H33   L0    1
   Removing shake constraints from C10   L0    1 -- H32   L0    1
   Removing shake constraints from C9    L0    1 -- H31   L0    1
   Removing shake constraints from C8    L0    1 -- H30   L0    1
   Removing shake constraints from N5    L0    1 -- H29   L0    1
   Removing shake constraints from N4    L0    1 -- H43   L0    1
   Removing shake constraints from N4    L0    1 -- H28   L0    1
   Removing shake constraints from C1    L0    1 -- H25   L0    1
   Removing shake constraints from C1    L0    1 -- H26   L0    1
   Removing shake constraints from C1    L0    1 -- H27   L0    1
   Removing shake constraints from C22   L0    2 -- H41   L0    2
   Removing shake constraints from C22   L0    2 -- H42   L0    2
   Removing shake constraints from C21   L0    2 -- H39   L0    2
   Removing shake constraints from C21   L0    2 -- H40   L0    2
   Removing shake constraints from C20   L0    2 -- H38   L0    2
   Removing shake constraints from C19   L0    2 -- H37   L0    2
   Removing shake constraints from C18   L0    2 -- H36   L0    2
   Removing shake constraints from C15   L0    2 -- H35   L0    2
   Removing shake constraints from C14   L0    2 -- H34   L0    2
   Removing shake constraints from C13   L0    2 -- H33   L0    2
   Removing shake constraints from C10   L0    2 -- H32   L0    2
   Removing shake constraints from C9    L0    2 -- H31   L0    2
   Removing shake constraints from C8    L0    2 -- H30   L0    2
   Removing shake constraints from N5    L0    2 -- H29   L0    2
   Removing shake constraints from N4    L0    2 -- H43   L0    2
   Removing shake constraints from N4    L0    2 -- H28   L0    2
   Removing shake constraints from C1    L0    2 -- H25   L0    2
   Removing shake constraints from C1    L0    2 -- H26   L0    2
   Removing shake constraints from C1    L0    2 -- H27   L0    2
 Number of shake restraints removed:       38

     Sum of charges for TI region  1 =   0.00001978
     Forcing neutrality...

     Sum of charges for TI region  2 =  -0.15102723
     Assuming uniform neutralizing plasma

--------------------------------------------------------------------------------
   4.  RESULTS
 NSTEP =     1000   TIME(PS) =      22.000  TEMP(K) =   283.65  PRESS =     0.0
 Etot   =   -117118.8546  EKtot   =     27121.6934  EPtot      =   -144240.5479
 BOND   =      1173.0770  ANGLE   =      3046.8070  DIHED      =      4888.5408
 1-4 NB =      1390.1125  1-4 EEL =     15972.1992  VDWAALS    =     17560.3502
 EELEC  =   -188271.6345  EHBOND  =         0.0000  RESTRAINT  =         0.0000
 EKCMT  =         0.0000  VIRIAL  =         0.0000  VOLUME     =    464646.6118
                                                    Density    =         1.0254
 DV/DL  =        -4.2311
 ------------------------------------------------------------------------------

      A V E R A G E S   O V E R   50000 S T E P S

 NSTEP =    50000   TIME(PS) =     120.000  TEMP(K) =   296.76  PRESS =     0.0
 Etot   =   -111517.8125  EKtot   =     28375.8723  EPtot      =   -139893.6848
 BOND   =      1187.1704  ANGLE   =      3064.5919  DIHED      =      4887.7195
 1-4 NB =      1410.3172  1-4 EEL =     15992.7001  VDWAALS    =     15679.9451
 EELEC  =   -182116.1290  EHBOND  =         0.0000  RESTRAINT  =         0.0000
 EKCMT  =         0.0000  VIRIAL  =         0.0000  VOLUME     =    463491.1386
                                                    Density    =         1.0280
 DV/DL  =        -5.2939
 ------------------------------------------------------------------------------

      R M S  F L U C T U A T I O N S

 NSTEP =    50000   TIME(PS) =     120.000  TEMP(K) =    10.35  PRESS =     0.0
 Etot   =      3113.0148  EKtot   =       989.8438  EPtot      =      2143.4281
 BOND   =        48.8849  ANGLE   =        98.9125  DIHED      =        34.3061
 1-4 NB =        16.2989  1-4 EEL =        40.8921  VDWAALS    =       882.0942
 EELEC  =      2863.0128  EHBOND  =         0.0000  RESTRAINT  =         0.0000
 EKCMT  =         0.0000  VIRIAL  =         0.0000  VOLUME     =       829.3066
                                                    Density    =         0.0018
 DV/DL  =         1.3461
 ------------------------------------------------------------------------------

      A V E R A G E S   O V E R   50000 S T E P S

 NSTEP =    50000   TIME(PS) =     120.000  TEMP(K) =   296.76  PRESS =     0.0
 Etot   =   -111517.8125  EKtot   =     28375.8723  EPtot      =   -139893.6848
 BOND   =      1187.1704  ANGLE   =      3064.5919  DIHED      =      4887.7195
 1-4 NB =      1410.3172  1-4 EEL =     15992.7001  VDWAALS    =     15679.9451
 EELEC  =   -182116.1290  EHBOND  =         0.0000  RESTRAINT  =         0.0000
 EKCMT  =         0.0000  VIRIAL  =         0.0000  VOLUME     =    463491.1386
                                                    Density    =         1.0280
 DV/DL  =        -5.2939
 ------------------------------------------------------------------------------

      R M S  F L U C T U A T I O N S

 NSTEP =    50000   TIME(PS) =     120.000  TEMP(K) =    10.35  PRESS =     0.0
 Etot   =      3113.0148  EKtot   =       989.8438  EPtot      =      2143.4281
 BOND   =        48.8849  ANGLE   =        98.9125  DIHED      =        34.3061
 1-4 NB =        16.2989  1-4 EEL =        40.8921  VDWAALS    =       882.0942
 EELEC  =      2863.0128  EHBOND  =         0.0000  RESTRAINT  =         0.0000
 EKCMT  =         0.0000  VIRIAL  =         0.0000  VOLUME     =       829.3066
                                                    Density    =         0.0018
 DV/DL  =         1.3461
 ------------------------------------------------------------------------------

      DV/DL, AVERAGES OVER   50000 STEPS

 NSTEP =    50000   TIME(PS) =     120.000  TEMP(K) =    10.35  PRESS =     0.0
 Etot   =         0.0000  EKtot   =         0.0000  EPtot      =        -5.2417
 BOND   =         0.0000  ANGLE   =         0.0000  DIHED      =         0.0000
 1-4 NB =         0.0000  1-4 EEL =         0.0000  VDWAALS    =         0.0000
 EELEC  =         1.4899  EHBOND  =         0.0000  RESTRAINT  =         0.0000
 EKCMT  =         0.0000  VIRIAL  =         0.0000  VOLUME     =         0.0000
                                                    Density    =         0.0000
 DV/DL  =        -5.2417
 ------------------------------------------------------------------------------

      A V E R A G E S   O V E R   50000 S T E P S

 NSTEP =   100000   TIME(PS) =     220.000  TEMP(K) =   298.02  PRESS =     0.0
 Etot   =   -111163.1733  EKtot   =     28495.7972  EPtot      =   -139658.9706
 BOND   =      1191.1851  ANGLE   =      3076.8652  DIHED      =      4894.6566
 1-4 NB =      1410.9020  1-4 EEL =     15989.7787  VDWAALS    =     15608.1692
 EELEC  =   -181830.5274  EHBOND  =         0.0000  RESTRAINT  =         0.0000
 EKCMT  =         0.0000  VIRIAL  =         0.0000  VOLUME     =    462589.0728
                                                    Density    =         1.0300
 DV/DL  =        -5.2130
 ------------------------------------------------------------------------------

      R M S  F L U C T U A T I O N S

 NSTEP =   100000   TIME(PS) =     220.000  TEMP(K) =     1.32  PRESS =     0.0
 Etot   =       228.0635  EKtot   =       125.8919  EPtot      =       193.7712
 BOND   =        29.3347  ANGLE   =        42.6822  DIHED      =        23.4967
 1-4 NB =        15.0879  1-4 EEL =        41.3027  VDWAALS    =       187.4631
 EELEC  =       310.1618  EHBOND  =         0.0000  RESTRAINT  =         0.0000
 EKCMT  =         0.0000  VIRIAL  =         0.0000  VOLUME     =       918.7787
                                                    Density    =         0.0020
 DV/DL  =         1.3307
 ------------------------------------------------------------------------------

      A V E R A G E S   O V E R   50000 S T E P S

 NSTEP =   100000   TIME(PS) =     220.000  TEMP(K) =   298.02  PRESS =     0.0
 Etot   =   -111163.1733  EKtot   =     28495.7972  EPtot      =   -139658.9706
 BOND   =      1191.1851  ANGLE   =      3076.8652  DIHED      =      4894.6566
 1-4 NB =      1410.9020  1-4 EEL =     15989.7787  VDWAALS    =     15608.1692
 EELEC  =   -181830.5274  EHBOND  =         0.0000  RESTRAINT  =         0.0000
 EKCMT  =         0.0000  VIRIAL  =         0.0000  VOLUME     =    462589.0728
                                                    Density    =         1.0300
 DV/DL  =        -5.2130
 ------------------------------------------------------------------------------

      R M S  F L U C T U A T I O N S

 NSTEP =   100000   TIME(PS) =     220.000  TEMP(K) =     1.32  PRESS =     0.0
 Etot   =       228.0635  EKtot   =       125.8919  EPtot      =       193.7712
 BOND   =        29.3347  ANGLE   =        42.6822  DIHED      =        23.4967
 1-4 NB =        15.0879  1-4 EEL =        41.3027  VDWAALS    =       187.4631
 EELEC  =       310.1618  EHBOND  =         0.0000  RESTRAINT  =         0.0000
 EKCMT  =         0.0000  VIRIAL  =         0.0000  VOLUME     =       918.7787
                                                    Density    =         0.0020
 DV/DL  =         1.3307
 ------------------------------------------------------------------------------

      DV/DL, AVERAGES OVER   50000 STEPS

 NSTEP =   100000   TIME(PS) =     220.000  TEMP(K) =     1.32  PRESS =     0.0
 Etot   =         0.0000  EKtot   =         0.0000  EPtot      =        -5.1608
 BOND   =         0.0000  ANGLE   =         0.0000  DIHED      =         0.0000
 1-4 NB =         0.0000  1-4 EEL =         0.0000  VDWAALS    =         0.0000
 EELEC  =         1.4899  EHBOND  =         0.0000  RESTRAINT  =         0.0000
 EKCMT  =         0.0000  VIRIAL  =         0.0000  VOLUME     =         0.0000
                                                    Density    =         0.0000
 DV/DL  =        -5.1608
 ------------------------------------------------------------------------------

      A V E R A G E S   O V E R   50000 S T E P S

 NSTEP =   500000   TIME(PS) =    1020.000  TEMP(K) =   297.93  PRESS =     0.0
 Etot   =   -111217.1033  EKtot   =     28487.8071  EPtot      =   -139704.9104
 BOND   =      1190.5598  ANGLE   =      3073.8065  DIHED      =      4886.2048
 1-4 NB =      1408.8821  1-4 EEL =     15953.4025  VDWAALS    =     15609.1389
 EELEC  =   -181826.9050  EHBOND  =         0.0000  RESTRAINT  =         0.0000
 EKCMT  =         0.0000  VIRIAL  =         0.0000  VOLUME     =    462679.2600
                                                    Density    =         1.0298
 DV/DL  =        -5.1461
 ------------------------------------------------------------------------------

      R M S  F L U C T U A T I O N S

 NSTEP =   500000   TIME(PS) =    1020.000  TEMP(K) =     1.39  PRESS =     0.0
 Etot   =       246.3729  EKtot   =       132.9041  EPtot      =       199.4197
 BOND   =        29.3141  ANGLE   =        41.7982  DIHED      =        24.5236
 1-4 NB =        15.1048  1-4 EEL =        41.8562  VDWAALS    =       192.4937
 EELEC  =       317.5424  EHBOND  =         0.0000  RESTRAINT  =         0.0000
 EKCMT  =         0.0000  VIRIAL  =         0.0000  VOLUME     =       958.5448
                                                    Density    =         0.0021
 DV/DL  =         1.3026
 ------------------------------------------------------------------------------

      A V E R A G E S   O V E R   50000 S T E P S

 NSTEP =   500000   TIME(PS) =    1020.000  TEMP(K) =   297.93  PRESS =     0.0
 Etot   =   -111217.1033  EKtot   =     28487.8071  EPtot      =   -139704.9104
 BOND   =      1190.5598  ANGLE   =      3073.8065  DIHED      =      4886.2048
 1-4 NB =      1408.8821  1-4 EEL =     15953.4025  VDWAALS    =     15609.1389
 EELEC  =   -181826.9050  EHBOND  =         0.0000  RESTRAINT  =         0.0000
 EKCMT  =         0.0000  VIRIAL  =         0.0000  VOLUME     =    462679.2600
                                                    Density    =         1.0298
 DV/DL  =        -5.1461
 ------------------------------------------------------------------------------

      R M S  F L U C T U A T I O N S

 NSTEP =   500000   TIME(PS) =    1020.000  TEMP(K) =     1.39  PRESS =     0.0
 Etot   =       246.3728  EKtot   =       132.9041  EPtot      =       199.4197
 BOND   =        29.3141  ANGLE   =        41.7982  DIHED      =        24.5236
 1-4 NB =        15.1048  1-4 EEL =        41.8562  VDWAALS    =       192.4937
 EELEC  =       317.5424  EHBOND  =         0.0000  RESTRAINT  =         0.0000
 EKCMT  =         0.0000  VIRIAL  =         0.0000  VOLUME     =       958.5448
                                                    Density    =         0.0021
 DV/DL  =         1.3026
 ------------------------------------------------------------------------------

      DV/DL, AVERAGES OVER   50000 STEPS

 NSTEP =   500000   TIME(PS) =    1020.000  TEMP(K) =     1.39  PRESS =     0.0
 Etot   =         0.0000  EKtot   =         0.0000  EPtot      =        -5.0951
 BOND   =         0.0000  ANGLE   =         0.0000  DIHED      =         0.0000
 1-4 NB =         0.0000  1-4 EEL =         0.0000  VDWAALS    =         0.0000
 EELEC  =         1.4899  EHBOND  =         0.0000  RESTRAINT  =         0.0000
 EKCMT  =         0.0000  VIRIAL  =         0.0000  VOLUME     =         0.0000
                                                    Density    =         0.0000
 DV/DL  =        -5.0951
 ------------------------------------------------------------------------------

      A V E R A G E S   O V E R  500000 S T E P S

 NSTEP =   500000   TIME(PS) =    1020.000  TEMP(K) =   297.80  PRESS =     0.0
 Etot   =   -111245.3126  EKtot   =     28474.9233  EPtot      =   -139720.2360
 BOND   =      1189.2195  ANGLE   =      3069.3217  DIHED      =      4892.7200
 1-4 NB =      1410.7175  1-4 EEL =     15992.4730  VDWAALS    =     15610.1381
 EELEC  =   -181884.8258  EHBOND  =         0.0000  RESTRAINT  =         0.0000
 EKCMT  =         0.0000  VIRIAL  =         0.0000  VOLUME     =    462695.3532
                                                    Density    =         1.0297
 DV/DL  =        -5.2703
 ------------------------------------------------------------------------------

      R M S  F L U C T U A T I O N S

 NSTEP =   500000   TIME(PS) =    1020.000  TEMP(K) =     3.54  PRESS =     0.0
 Etot   =      1013.9799  EKtot   =       338.3796  EPtot      =       704.5791
 BOND   =        31.6014  ANGLE   =        50.8460  DIHED      =        25.8669
 1-4 NB =        15.4544  1-4 EEL =        47.3204  VDWAALS    =       330.9929
 EELEC  =       951.9215  EHBOND  =         0.0000  RESTRAINT  =         0.0000
 EKCMT  =         0.0000  VIRIAL  =         0.0000  VOLUME     =      1036.6376
                                                    Density    =         0.0023
 DV/DL  =         1.3457
 ------------------------------------------------------------------------------

      A V E R A G E S   O V E R  500000 S T E P S

 NSTEP =   500000   TIME(PS) =    1020.000  TEMP(K) =   297.80  PRESS =     0.0
 Etot   =   -111245.3126  EKtot   =     28474.9233  EPtot      =   -139720.2360
 BOND   =      1189.2195  ANGLE   =      3069.3217  DIHED      =      4892.7200
 1-4 NB =      1410.7175  1-4 EEL =     15992.4730  VDWAALS    =     15610.1381
 EELEC  =   -181884.8258  EHBOND  =         0.0000  RESTRAINT  =         0.0000
 EKCMT  =         0.0000  VIRIAL  =         0.0000  VOLUME     =    462695.3532
                                                    Density    =         1.0297
 DV/DL  =        -5.2703
 ------------------------------------------------------------------------------

      R M S  F L U C T U A T I O N S

 NSTEP =   500000   TIME(PS) =    1020.000  TEMP(K) =     3.54  PRESS =     0.0
 Etot   =      1013.9799  EKtot   =       338.3796  EPtot      =       704.5791
 BOND   =        31.6014  ANGLE   =        50.8460  DIHED      =        25.8669
 1-4 NB =        15.4544  1-4 EEL =        47.3204  VDWAALS    =       330.9929
 EELEC  =       951.9215  EHBOND  =         0.0000  RESTRAINT  =         0.0000
 EKCMT  =         0.0000  VIRIAL  =         0.0000  VOLUME     =      1036.6376
                                                    Density    =         0.0023
 DV/DL  =         1.3457
 ------------------------------------------------------------------------------

      DV/DL, AVERAGES OVER  500000 STEPS

 NSTEP =   500000   TIME(PS) =    1020.000  TEMP(K) =     3.54  PRESS =     0.0
 Etot   =         0.0000  EKtot   =         0.0000  EPtot      =        -5.2179
 BOND   =         0.0000  ANGLE   =         0.0000  DIHED      =         0.0000
 1-4 NB =         0.0000  1-4 EEL =         0.0000  VDWAALS    =         0.0000
 EELEC  =         1.4899  EHBOND  =         0.0000  RESTRAINT  =         0.0000
 EKCMT  =         0.0000  VIRIAL  =         0.0000  VOLUME     =         0.0000
                                                    Density    =         0.0000
 DV/DL  =        -5.2179
 ------------------------------------------------------------------------------
