-------------------------------------------------------
          Amber 16 PMEMD                              2016
          -------------------------------------------------------

  [-O]verwriting output

File Assignments:

 Here is the input file:

TI/FEP, NpT, recharge transformation
 &cntrl
 ! please adjust namelist parameters to your needs!

 ! parameters for general MD
 imin = 0, nstlim = 500000, irest = 1, ntx = 5, dt = 0.002,
 ntt = 3, temp0 = 298.0, gamma_ln = 2.0, ig = -1,
 ntb = 2,
 ntp = 1, barostat = 2, pres0 = 1.01325, taup = 2.0,
 ntwe = 100, ntwx = 10000, ntpr = 1000, ntwr = 50000, ntave = 50000,
 ioutfm = 1, iwrap = 1, ntxo = 2,

 ! parameters for alchemical free energy simulation
 ntc = 2, ntf = 1,
 noshakemask = ':1,2',

 icfe = 1, ifsc = 0, clambda = 0.25, scalpha = 0.5, scbeta = 12.0,
 ifmbar = 1, mbar_lambda = 0.00 0.25 0.50 0.75 1.00,
 mbar_states = 5, bar_intervall = 1000,   ! ntpr = bar_intervall for alchemical

 timask1=':1', timask2=':2',
scmask1='',
scmask2='',
 crgmask = ':1@Cl18',
 /
 &ewald
 /

Note: ig = -1. Setting random seed to   845328 based on wallclock time in
      microseconds.

--------------------------------------------------------------------------------
   1.  RESOURCE   USE:
--------------------------------------------------------------------------------

 getting box info from netcdf restart file
 NATOM  =   46594 NTYPES =      28 NBONH =   43474 MBONA  =    3195
 NTHETH =    6825 MTHETA =    4355 NPHIH =   13976 MPHIA  =   13706
 NHPARM =       0 NPARM  =       0 NNB   =   87745 NRES   =   13889
 NBONA  =    3195 NTHETA =    4355 NPHIA =   13706 NUMBND =      89
 NUMANG =     195 NPTRA  =     203 NATYP =      50 NPHB   =       1
 IFBOX  =       1 NMXRS  =      43 IFCAP =       0 NEXTRA =       0
 NCOPY  =       0

     BOX TYPE: RECTILINEAR

--------------------------------------------------------------------------------
   2.  CONTROL  DATA  FOR  THE  RUN
--------------------------------------------------------------------------------

L1

General flags:
     imin    =       0, nmropt  =       0

Nature and format of input:
     ntx     =       5, irest   =       1, ntrx    =       1

Nature and format of output:
     ntxo    =       2, ntpr    =    1000, ntrx    =       1, ntwr    =   50000
     iwrap   =       1, ntwx    =   10000, ntwv    =       0, ntwe    =     100
     ioutfm  =       1, ntwprt  =       0, idecomp =       0, rbornstat=      0

Potential function:
     ntf     =       1, ntb     =       2, igb     =       0, nsnb    =      25
     ipol    =       0, gbsa    =       0, iesp    =       0
     dielc   =   1.00000, cut     =   8.00000, intdiel =   1.00000

Frozen or restrained atoms:
     ibelly  =       0, ntr     =       0

Molecular dynamics:
     nstlim  =    500000, nscm    =      1000, nrespa  =         1
     t       =   0.00000, dt      =   0.00200, vlimit  =  -1.00000

Langevin dynamics temperature regulation:
     ig      =  845328
     temp0   = 298.00000, tempi   =   0.00000, gamma_ln=   2.00000

Pressure regulation:
     ntp     =       1
     pres0   =   1.01325, comp    =  44.60000, taup    =   2.00000
     Monte-Carlo Barostat:
     mcbarint  =     100

SHAKE:
     ntc     =       2, jfastw  =       0
     tol     =   0.00001

Free energy options:
     icfe    =       1, ifsc    =       0, klambda =       1
     clambda =  0.2500, scalpha =  0.5000, scbeta  = 12.0000
     sceeorder =       2
     dynlmb =  0.0000 logdvdl =       0

FEP MBAR options:
     ifmbar  =       1,  bar_intervall =     1000
     mbar_states =       5

Ewald parameters:
     verbose =       0, ew_type =       0, nbflag  =       1, use_pme =       1
     vdwmeth =       1, eedmeth =       1, netfrc  =       1
     Box X =   87.894   Box Y =   67.207   Box Z =   78.608
     Alpha =   90.000   Beta  =   90.000   Gamma =   90.000
     NFFT1 =   96       NFFT2 =   64       NFFT3 =   80
     Cutoff=    8.000   Tol   =0.100E-04
     Ewald Coefficient =  0.34864
     Interpolation order =    4
     TI Mask 1 :1; matches     43 atoms
     TI Mask 2 :2; matches     43 atoms
     TI region 1:   46551 atoms
     TI region 2:   46551 atoms
Removing charge of      -0.0609 from atom      43
Total charge of  -0.06094600 removed from       1 atoms

    MBAR - lambda values considered:
       5 total:  0.0000 0.2500 0.5000 0.7500 1.0000
    Extra energies will be computed    500 times.
     Checking for mismatched coordinates.
 Noshake mask :1,2; matches      86 atoms.

--------------------------------------------------------------------------------
   3.  ATOMIC COORDINATES AND VELOCITIES
--------------------------------------------------------------------------------

L1
 begin time read from input coords =    20.000 ps

 Number of triangulated 3-point waters found:    13488
   Removing shake constraints from C23   L1    1 -- H41   L1    1
   Removing shake constraints from C23   L1    1 -- H42   L1    1
   Removing shake constraints from C22   L1    1 -- H39   L1    1
   Removing shake constraints from C22   L1    1 -- H40   L1    1
   Removing shake constraints from C21   L1    1 -- H38   L1    1
   Removing shake constraints from C20   L1    1 -- H37   L1    1
   Removing shake constraints from C13   L1    1 -- H34   L1    1
   Removing shake constraints from C16   L1    1 -- H35   L1    1
   Removing shake constraints from C19   L1    1 -- H36   L1    1
   Removing shake constraints from C10   L1    1 -- H33   L1    1
   Removing shake constraints from C9    L1    1 -- H32   L1    1
   Removing shake constraints from C8    L1    1 -- H31   L1    1
   Removing shake constraints from N5    L1    1 -- H30   L1    1
   Removing shake constraints from N4    L1    1 -- H43   L1    1
   Removing shake constraints from N4    L1    1 -- H29   L1    1
   Removing shake constraints from C1    L1    1 -- H26   L1    1
   Removing shake constraints from C1    L1    1 -- H27   L1    1
   Removing shake constraints from C1    L1    1 -- H28   L1    1
   Removing shake constraints from C23   L1    2 -- H41   L1    2
   Removing shake constraints from C23   L1    2 -- H42   L1    2
   Removing shake constraints from C22   L1    2 -- H39   L1    2
   Removing shake constraints from C22   L1    2 -- H40   L1    2
   Removing shake constraints from C21   L1    2 -- H38   L1    2
   Removing shake constraints from C20   L1    2 -- H37   L1    2
   Removing shake constraints from C13   L1    2 -- H34   L1    2
   Removing shake constraints from C16   L1    2 -- H35   L1    2
   Removing shake constraints from C19   L1    2 -- H36   L1    2
   Removing shake constraints from C10   L1    2 -- H33   L1    2
   Removing shake constraints from C9    L1    2 -- H32   L1    2
   Removing shake constraints from C8    L1    2 -- H31   L1    2
   Removing shake constraints from N5    L1    2 -- H30   L1    2
   Removing shake constraints from N4    L1    2 -- H43   L1    2
   Removing shake constraints from N4    L1    2 -- H29   L1    2
   Removing shake constraints from C1    L1    2 -- H26   L1    2
   Removing shake constraints from C1    L1    2 -- H27   L1    2
   Removing shake constraints from C1    L1    2 -- H28   L1    2
 Number of shake restraints removed:       36

     Sum of charges for TI region  1 =   0.06096676
     Assuming uniform neutralizing plasma

     Sum of charges for TI region  2 =   0.00002076
     Forcing neutrality...

--------------------------------------------------------------------------------
   4.  RESULTS
 NSTEP =     1000   TIME(PS) =      22.000  TEMP(K) =   284.10  PRESS =     0.0
 Etot   =   -116980.9277  EKtot   =     27164.7988  EPtot      =   -144145.7265
 BOND   =      1173.3091  ANGLE   =      3052.2968  DIHED      =      4882.7088
 1-4 NB =      1414.1109  1-4 EEL =     15958.0601  VDWAALS    =     17339.8216
 EELEC  =   -187966.0338  EHBOND  =         0.0000  RESTRAINT  =         0.0000
 EKCMT  =         0.0000  VIRIAL  =         0.0000  VOLUME     =    466478.1751
                                                    Density    =         1.0215
 DV/DL  =        -1.4409
 ------------------------------------------------------------------------------

      A V E R A G E S   O V E R   50000 S T E P S

 NSTEP =    50000   TIME(PS) =     120.000  TEMP(K) =   296.67  PRESS =     0.0
 Etot   =   -111636.5972  EKtot   =     28366.3743  EPtot      =   -140002.9715
 BOND   =      1186.1050  ANGLE   =      3065.2305  DIHED      =      4886.2294
 1-4 NB =      1412.2231  1-4 EEL =     15983.6844  VDWAALS    =     15726.1101
 EELEC  =   -182262.5540  EHBOND  =         0.0000  RESTRAINT  =         0.0000
 EKCMT  =         0.0000  VIRIAL  =         0.0000  VOLUME     =    462454.2589
                                                    Density    =         1.0304
 DV/DL  =        -1.6332
 ------------------------------------------------------------------------------

      R M S  F L U C T U A T I O N S

 NSTEP =    50000   TIME(PS) =     120.000  TEMP(K) =    10.35  PRESS =     0.0
 Etot   =      3093.6097  EKtot   =       989.7069  EPtot      =      2124.9310
 BOND   =        49.2867  ANGLE   =        99.0530  DIHED      =        32.9306
 1-4 NB =        15.9718  1-4 EEL =        42.6832  VDWAALS    =       895.1629
 EELEC  =      2854.0048  EHBOND  =         0.0000  RESTRAINT  =         0.0000
 EKCMT  =         0.0000  VIRIAL  =         0.0000  VOLUME     =      1570.9710
                                                    Density    =         0.0035
 DV/DL  =         0.4833
 ------------------------------------------------------------------------------

      A V E R A G E S   O V E R   50000 S T E P S

 NSTEP =    50000   TIME(PS) =     120.000  TEMP(K) =   296.67  PRESS =     0.0
 Etot   =   -111636.5972  EKtot   =     28366.3743  EPtot      =   -140002.9715
 BOND   =      1186.1050  ANGLE   =      3065.2305  DIHED      =      4886.2294
 1-4 NB =      1412.2231  1-4 EEL =     15983.6844  VDWAALS    =     15726.1101
 EELEC  =   -182262.5540  EHBOND  =         0.0000  RESTRAINT  =         0.0000
 EKCMT  =         0.0000  VIRIAL  =         0.0000  VOLUME     =    462454.2589
                                                    Density    =         1.0304
 DV/DL  =        -1.6332
 ------------------------------------------------------------------------------

      R M S  F L U C T U A T I O N S

 NSTEP =    50000   TIME(PS) =     120.000  TEMP(K) =    10.35  PRESS =     0.0
 Etot   =      3093.6097  EKtot   =       989.7069  EPtot      =      2124.9310
 BOND   =        49.2867  ANGLE   =        99.0530  DIHED      =        32.9306
 1-4 NB =        15.9718  1-4 EEL =        42.6832  VDWAALS    =       895.1629
 EELEC  =      2854.0048  EHBOND  =         0.0000  RESTRAINT  =         0.0000
 EKCMT  =         0.0000  VIRIAL  =         0.0000  VOLUME     =      1570.9710
                                                    Density    =         0.0035
 DV/DL  =         0.4833
 ------------------------------------------------------------------------------

      DV/DL, AVERAGES OVER   50000 STEPS

 NSTEP =    50000   TIME(PS) =     120.000  TEMP(K) =    10.35  PRESS =     0.0
 Etot   =         0.0000  EKtot   =         0.0000  EPtot      =        -1.6169
 BOND   =         0.0000  ANGLE   =         0.0000  DIHED      =         0.0000
 1-4 NB =         0.0000  1-4 EEL =         0.0000  VDWAALS    =         0.0000
 EELEC  =        -0.2426  EHBOND  =         0.0000  RESTRAINT  =         0.0000
 EKCMT  =         0.0000  VIRIAL  =         0.0000  VOLUME     =         0.0000
                                                    Density    =         0.0000
 DV/DL  =        -1.6169
 ------------------------------------------------------------------------------

      A V E R A G E S   O V E R   50000 S T E P S

 NSTEP =   100000   TIME(PS) =     220.000  TEMP(K) =   298.11  PRESS =     0.0
 Etot   =   -111161.8420  EKtot   =     28504.3056  EPtot      =   -139666.1476
 BOND   =      1191.3955  ANGLE   =      3072.1491  DIHED      =      4892.0271
 1-4 NB =      1412.5716  1-4 EEL =     15952.8513  VDWAALS    =     15622.7185
 EELEC  =   -181809.8608  EHBOND  =         0.0000  RESTRAINT  =         0.0000
 EKCMT  =         0.0000  VIRIAL  =         0.0000  VOLUME     =    462426.9370
                                                    Density    =         1.0304
 DV/DL  =        -1.7452
 ------------------------------------------------------------------------------

      R M S  F L U C T U A T I O N S

 NSTEP =   100000   TIME(PS) =     220.000  TEMP(K) =     1.35  PRESS =     0.0
 Etot   =       218.0016  EKtot   =       128.8733  EPtot      =       182.7684
 BOND   =        29.1495  ANGLE   =        42.2465  DIHED      =        23.9694
 1-4 NB =        15.1675  1-4 EEL =        42.4567  VDWAALS    =       186.1598
 EELEC  =       297.3395  EHBOND  =         0.0000  RESTRAINT  =         0.0000
 EKCMT  =         0.0000  VIRIAL  =         0.0000  VOLUME     =       906.3055
                                                    Density    =         0.0020
 DV/DL  =         0.5090
 ------------------------------------------------------------------------------

      A V E R A G E S   O V E R   50000 S T E P S

 NSTEP =   100000   TIME(PS) =     220.000  TEMP(K) =   298.11  PRESS =     0.0
 Etot   =   -111161.8420  EKtot   =     28504.3056  EPtot      =   -139666.1476
 BOND   =      1191.3955  ANGLE   =      3072.1491  DIHED      =      4892.0271
 1-4 NB =      1412.5716  1-4 EEL =     15952.8513  VDWAALS    =     15622.7185
 EELEC  =   -181809.8608  EHBOND  =         0.0000  RESTRAINT  =         0.0000
 EKCMT  =         0.0000  VIRIAL  =         0.0000  VOLUME     =    462426.9370
                                                    Density    =         1.0304
 DV/DL  =        -1.7452
 ------------------------------------------------------------------------------

      R M S  F L U C T U A T I O N S

 NSTEP =   100000   TIME(PS) =     220.000  TEMP(K) =     1.35  PRESS =     0.0
 Etot   =       218.0016  EKtot   =       128.8733  EPtot      =       182.7684
 BOND   =        29.1495  ANGLE   =        42.2465  DIHED      =        23.9694
 1-4 NB =        15.1675  1-4 EEL =        42.4567  VDWAALS    =       186.1598
 EELEC  =       297.3395  EHBOND  =         0.0000  RESTRAINT  =         0.0000
 EKCMT  =         0.0000  VIRIAL  =         0.0000  VOLUME     =       906.3055
                                                    Density    =         0.0020
 DV/DL  =         0.5090
 ------------------------------------------------------------------------------

      DV/DL, AVERAGES OVER   50000 STEPS

 NSTEP =   100000   TIME(PS) =     220.000  TEMP(K) =     1.35  PRESS =     0.0
 Etot   =         0.0000  EKtot   =         0.0000  EPtot      =        -1.7274
 BOND   =         0.0000  ANGLE   =         0.0000  DIHED      =         0.0000
 1-4 NB =         0.0000  1-4 EEL =         0.0000  VDWAALS    =         0.0000
 EELEC  =        -0.2426  EHBOND  =         0.0000  RESTRAINT  =         0.0000
 EKCMT  =         0.0000  VIRIAL  =         0.0000  VOLUME     =         0.0000
                                                    Density    =         0.0000
 DV/DL  =        -1.7274
 ------------------------------------------------------------------------------

      A V E R A G E S   O V E R   50000 S T E P S

 NSTEP =   500000   TIME(PS) =    1020.000  TEMP(K) =   298.04  PRESS =     0.0
 Etot   =   -111166.9232  EKtot   =     28497.7083  EPtot      =   -139664.6315
 BOND   =      1188.9211  ANGLE   =      3069.2161  DIHED      =      4896.8358
 1-4 NB =      1414.0716  1-4 EEL =     15990.8352  VDWAALS    =     15603.2506
 EELEC  =   -181827.7619  EHBOND  =         0.0000  RESTRAINT  =         0.0000
 EKCMT  =         0.0000  VIRIAL  =         0.0000  VOLUME     =    462780.7861
                                                    Density    =         1.0297
 DV/DL  =        -1.7278
 ------------------------------------------------------------------------------

      R M S  F L U C T U A T I O N S

 NSTEP =   500000   TIME(PS) =    1020.000  TEMP(K) =     1.33  PRESS =     0.0
 Etot   =       222.6045  EKtot   =       127.1688  EPtot      =       187.4091
 BOND   =        29.3448  ANGLE   =        41.6267  DIHED      =        24.2059
 1-4 NB =        15.3368  1-4 EEL =        43.6022  VDWAALS    =       185.7673
 EELEC  =       308.1006  EHBOND  =         0.0000  RESTRAINT  =         0.0000
 EKCMT  =         0.0000  VIRIAL  =         0.0000  VOLUME     =       914.5233
                                                    Density    =         0.0020
 DV/DL  =         0.4973
 ------------------------------------------------------------------------------

      A V E R A G E S   O V E R   50000 S T E P S

 NSTEP =   500000   TIME(PS) =    1020.000  TEMP(K) =   298.04  PRESS =     0.0
 Etot   =   -111166.9232  EKtot   =     28497.7083  EPtot      =   -139664.6315
 BOND   =      1188.9211  ANGLE   =      3069.2161  DIHED      =      4896.8358
 1-4 NB =      1414.0716  1-4 EEL =     15990.8352  VDWAALS    =     15603.2506
 EELEC  =   -181827.7619  EHBOND  =         0.0000  RESTRAINT  =         0.0000
 EKCMT  =         0.0000  VIRIAL  =         0.0000  VOLUME     =    462780.7861
                                                    Density    =         1.0297
 DV/DL  =        -1.7278
 ------------------------------------------------------------------------------

      R M S  F L U C T U A T I O N S

 NSTEP =   500000   TIME(PS) =    1020.000  TEMP(K) =     1.33  PRESS =     0.0
 Etot   =       222.6045  EKtot   =       127.1688  EPtot      =       187.4091
 BOND   =        29.3448  ANGLE   =        41.6267  DIHED      =        24.2059
 1-4 NB =        15.3368  1-4 EEL =        43.6022  VDWAALS    =       185.7673
 EELEC  =       308.1006  EHBOND  =         0.0000  RESTRAINT  =         0.0000
 EKCMT  =         0.0000  VIRIAL  =         0.0000  VOLUME     =       914.5233
                                                    Density    =         0.0020
 DV/DL  =         0.4973
 ------------------------------------------------------------------------------

      DV/DL, AVERAGES OVER   50000 STEPS

 NSTEP =   500000   TIME(PS) =    1020.000  TEMP(K) =     1.33  PRESS =     0.0
 Etot   =         0.0000  EKtot   =         0.0000  EPtot      =        -1.7104
 BOND   =         0.0000  ANGLE   =         0.0000  DIHED      =         0.0000
 1-4 NB =         0.0000  1-4 EEL =         0.0000  VDWAALS    =         0.0000
 EELEC  =        -0.2426  EHBOND  =         0.0000  RESTRAINT  =         0.0000
 EKCMT  =         0.0000  VIRIAL  =         0.0000  VOLUME     =         0.0000
                                                    Density    =         0.0000
 DV/DL  =        -1.7104
 ------------------------------------------------------------------------------

      A V E R A G E S   O V E R  500000 S T E P S

 NSTEP =   500000   TIME(PS) =    1020.000  TEMP(K) =   297.84  PRESS =     0.0
 Etot   =   -111233.8067  EKtot   =     28478.3543  EPtot      =   -139712.1610
 BOND   =      1188.9505  ANGLE   =      3067.3747  DIHED      =      4892.3229
 1-4 NB =      1412.8612  1-4 EEL =     15976.7324  VDWAALS    =     15619.4829
 EELEC  =   -181869.8856  EHBOND  =         0.0000  RESTRAINT  =         0.0000
 EKCMT  =         0.0000  VIRIAL  =         0.0000  VOLUME     =    462693.5614
                                                    Density    =         1.0299
 DV/DL  =        -1.7261
 ------------------------------------------------------------------------------

      R M S  F L U C T U A T I O N S

 NSTEP =   500000   TIME(PS) =    1020.000  TEMP(K) =     3.54  PRESS =     0.0
 Etot   =      1011.1718  EKtot   =       338.1867  EPtot      =       702.1702
 BOND   =        31.6547  ANGLE   =        50.8131  DIHED      =        25.5982
 1-4 NB =        15.4330  1-4 EEL =        45.1928  VDWAALS    =       335.5307
 EELEC  =       955.4662  EHBOND  =         0.0000  RESTRAINT  =         0.0000
 EKCMT  =         0.0000  VIRIAL  =         0.0000  VOLUME     =      1014.2698
                                                    Density    =         0.0023
 DV/DL  =         0.5132
 ------------------------------------------------------------------------------

      A V E R A G E S   O V E R  500000 S T E P S

 NSTEP =   500000   TIME(PS) =    1020.000  TEMP(K) =   297.84  PRESS =     0.0
 Etot   =   -111233.8067  EKtot   =     28478.3543  EPtot      =   -139712.1610
 BOND   =      1188.9505  ANGLE   =      3067.3747  DIHED      =      4892.3229
 1-4 NB =      1412.8612  1-4 EEL =     15976.7324  VDWAALS    =     15619.4829
 EELEC  =   -181869.8856  EHBOND  =         0.0000  RESTRAINT  =         0.0000
 EKCMT  =         0.0000  VIRIAL  =         0.0000  VOLUME     =    462693.5614
                                                    Density    =         1.0299
 DV/DL  =        -1.7261
 ------------------------------------------------------------------------------

      R M S  F L U C T U A T I O N S

 NSTEP =   500000   TIME(PS) =    1020.000  TEMP(K) =     3.54  PRESS =     0.0
 Etot   =      1011.1718  EKtot   =       338.1867  EPtot      =       702.1702
 BOND   =        31.6547  ANGLE   =        50.8131  DIHED      =        25.5982
 1-4 NB =        15.4330  1-4 EEL =        45.1928  VDWAALS    =       335.5307
 EELEC  =       955.4662  EHBOND  =         0.0000  RESTRAINT  =         0.0000
 EKCMT  =         0.0000  VIRIAL  =         0.0000  VOLUME     =      1014.2698
                                                    Density    =         0.0023
 DV/DL  =         0.5132
 ------------------------------------------------------------------------------

      DV/DL, AVERAGES OVER  500000 STEPS

 NSTEP =   500000   TIME(PS) =    1020.000  TEMP(K) =     3.54  PRESS =     0.0
 Etot   =         0.0000  EKtot   =         0.0000  EPtot      =        -1.7088
 BOND   =         0.0000  ANGLE   =         0.0000  DIHED      =         0.0000
 1-4 NB =         0.0000  1-4 EEL =         0.0000  VDWAALS    =         0.0000
 EELEC  =        -0.2426  EHBOND  =         0.0000  RESTRAINT  =         0.0000
 EKCMT  =         0.0000  VIRIAL  =         0.0000  VOLUME     =         0.0000
                                                    Density    =         0.0000
 DV/DL  =        -1.7088
 ------------------------------------------------------------------------------
