-------------------------------------------------------
          Amber 16 PMEMD                              2016
          -------------------------------------------------------

  [-O]verwriting output

File Assignments:

 Here is the input file:

TI/FEP, NpT, vdW+bonded transformation
 &cntrl
 ! please adjust namelist parameters to your needs!

 ! parameters for general MD
 imin = 0, nstlim = 500000, irest = 1, ntx = 5, dt = 0.002,
 ntt = 3, temp0 = 298.0, gamma_ln = 2.0, ig = -1,
 ntb = 2,
 ntp = 1, barostat = 2, pres0 = 1.01325, taup = 2.0,
 ntwe = 100, ntwx = 10000, ntpr = 1000, ntwr = 50000, ntave = 50000,
 ioutfm = 1, iwrap = 1, ntxo = 2,

 ! parameters for alchemical free energy simulation
 ntc = 2, ntf = 1,
 noshakemask = ':1,2',

 icfe = 1, ifsc = 1, clambda = 0.0, scalpha = 0.5, scbeta = 12.0,
 ifmbar = 1, mbar_lambda = 0.0 0.0479 0.1150 0.2063 0.3160 0.4373 0.5626 0.6839
 mbar_states = 12, bar_intervall = 1000,   ! ntpr = bar_intervall for alchemica

 timask1=':1', timask2=':2',
scmask1=':1@H34',
scmask2=':2@Cl18',
 crgmask = ':1@H34 | :2@Cl18',
 /
 &ewald
 /

Note: ig = -1. Setting random seed to   954023 based on wallclock time in
      microseconds.

--------------------------------------------------------------------------------
   1.  RESOURCE   USE:
--------------------------------------------------------------------------------

 getting box info from netcdf restart file
 NATOM  =    4115 NTYPES =      13 NBONH =    4066 MBONA  =      55
 NTHETH =      78 MTHETA =      84 NPHIH =     153 MPHIA  =     133
 NHPARM =       0 NPARM  =       0 NNB   =    5842 NRES   =    1345
 NBONA  =      55 NTHETA =      84 NPHIA =     133 NUMBND =      22
 NUMANG =      35 NPTRA  =      14 NATYP =      17 NPHB   =       1
 IFBOX  =       1 NMXRS  =      43 IFCAP =       0 NEXTRA =       0
 NCOPY  =       0

     BOX TYPE: RECTILINEAR

--------------------------------------------------------------------------------
   2.  CONTROL  DATA  FOR  THE  RUN
--------------------------------------------------------------------------------

L0

General flags:
     imin    =       0, nmropt  =       0

Nature and format of input:
     ntx     =       5, irest   =       1, ntrx    =       1

Nature and format of output:
     ntxo    =       2, ntpr    =    1000, ntrx    =       1, ntwr    =   50000
     iwrap   =       1, ntwx    =   10000, ntwv    =       0, ntwe    =     100
     ioutfm  =       1, ntwprt  =       0, idecomp =       0, rbornstat=      0

Potential function:
     ntf     =       1, ntb     =       2, igb     =       0, nsnb    =      25
     ipol    =       0, gbsa    =       0, iesp    =       0
     dielc   =   1.00000, cut     =   8.00000, intdiel =   1.00000

Frozen or restrained atoms:
     ibelly  =       0, ntr     =       0

Molecular dynamics:
     nstlim  =    500000, nscm    =      1000, nrespa  =         1
     t       =   0.00000, dt      =   0.00200, vlimit  =  -1.00000

Langevin dynamics temperature regulation:
     ig      =  954023
     temp0   = 298.00000, tempi   =   0.00000, gamma_ln=   2.00000

Pressure regulation:
     ntp     =       1
     pres0   =   1.01325, comp    =  44.60000, taup    =   2.00000
     Monte-Carlo Barostat:
     mcbarint  =     100

SHAKE:
     ntc     =       2, jfastw  =       0
     tol     =   0.00001

Free energy options:
     icfe    =       1, ifsc    =       1, klambda =       1
     clambda =  0.0000, scalpha =  0.5000, scbeta  = 12.0000
     sceeorder =       2
     dynlmb =  0.0000 logdvdl =       0

FEP MBAR options:
     ifmbar  =       1,  bar_intervall =     1000
     mbar_states =      12

Ewald parameters:
     verbose =       0, ew_type =       0, nbflag  =       1, use_pme =       1
     vdwmeth =       1, eedmeth =       1, netfrc  =       1
     Box X =   32.703   Box Y =   37.439   Box Z =   33.758
     Alpha =   90.000   Beta  =   90.000   Gamma =   90.000
     NFFT1 =   36       NFFT2 =   40       NFFT3 =   36
     Cutoff=    8.000   Tol   =0.100E-04
     Ewald Coefficient =  0.34864
     Interpolation order =    4
     TI Mask 1 :1; matches     43 atoms
     TI Mask 2 :2; matches     43 atoms
     TI region 1:    4072 atoms
     TI region 2:    4072 atoms
     SC Mask 1 :1@H34; matches      1 atoms
     SC Mask 2 :2@Cl18; matches      1 atoms
Removing charge of       0.1510 from atom      43
Removing charge of      -0.0609 from atom      86
Total charge of   0.09010100 removed from       2 atoms

    MBAR - lambda values considered:
      12 total:  0.0000 0.0479 0.1150 0.2063 0.3160 0.4373 0.5626 0.6839 0.7936 0.8849 0.9520 1.0000
    Extra energies will be computed    500 times.
 Noshake mask :1,2; matches      86 atoms.

--------------------------------------------------------------------------------
   3.  ATOMIC COORDINATES AND VELOCITIES
--------------------------------------------------------------------------------

L0
 begin time read from input coords =    20.000 ps

     Molecule     1 is partially softcore
     Molecule     2 is partially softcore
 Number of triangulated 3-point waters found:     1343
   Removing shake constraints from C22   L0    1 -- H41   L0    1
   Removing shake constraints from C22   L0    1 -- H42   L0    1
   Removing shake constraints from C21   L0    1 -- H39   L0    1
   Removing shake constraints from C21   L0    1 -- H40   L0    1
   Removing shake constraints from C20   L0    1 -- H38   L0    1
   Removing shake constraints from C19   L0    1 -- H37   L0    1
   Removing shake constraints from C18   L0    1 -- H36   L0    1
   Removing shake constraints from C15   L0    1 -- H35   L0    1
   Removing shake constraints from C14   L0    1 -- H34   L0    1
   Removing shake constraints from C13   L0    1 -- H33   L0    1
   Removing shake constraints from C10   L0    1 -- H32   L0    1
   Removing shake constraints from C9    L0    1 -- H31   L0    1
   Removing shake constraints from C8    L0    1 -- H30   L0    1
   Removing shake constraints from N5    L0    1 -- H29   L0    1
   Removing shake constraints from N4    L0    1 -- H43   L0    1
   Removing shake constraints from N4    L0    1 -- H28   L0    1
   Removing shake constraints from C1    L0    1 -- H25   L0    1
   Removing shake constraints from C1    L0    1 -- H26   L0    1
   Removing shake constraints from C1    L0    1 -- H27   L0    1
   Removing shake constraints from C23   L1    2 -- H41   L1    2
   Removing shake constraints from C23   L1    2 -- H42   L1    2
   Removing shake constraints from C22   L1    2 -- H39   L1    2
   Removing shake constraints from C22   L1    2 -- H40   L1    2
   Removing shake constraints from C21   L1    2 -- H38   L1    2
   Removing shake constraints from C20   L1    2 -- H37   L1    2
   Removing shake constraints from C13   L1    2 -- H34   L1    2
   Removing shake constraints from C16   L1    2 -- H35   L1    2
   Removing shake constraints from C19   L1    2 -- H36   L1    2
   Removing shake constraints from C10   L1    2 -- H33   L1    2
   Removing shake constraints from C9    L1    2 -- H32   L1    2
   Removing shake constraints from C8    L1    2 -- H31   L1    2
   Removing shake constraints from N5    L1    2 -- H30   L1    2
   Removing shake constraints from N4    L1    2 -- H43   L1    2
   Removing shake constraints from N4    L1    2 -- H29   L1    2
   Removing shake constraints from C1    L1    2 -- H26   L1    2
   Removing shake constraints from C1    L1    2 -- H27   L1    2
   Removing shake constraints from C1    L1    2 -- H28   L1    2
 WARNING: SHAKEn bond for atoms       14       43 is partially softcore.
 Coordinates for common atoms will be synchronized from V0.
 Consider using noshake mask or disabling SHAKE.

 Number of shake restraints removed in TI region  1 :       19
 Number of shake restraints removed in TI region  2 :       18

     Sum of charges for TI region  1 =   0.84897300
     Assuming uniform neutralizing plasma

     Sum of charges for TI region  2 =   1.06096699
     Assuming uniform neutralizing plasma

--------------------------------------------------------------------------------
   4.  RESULTS
 NSTEP =     1000   TIME(PS) =      22.000  TEMP(K) =   283.29  PRESS =     0.0
 Etot   =    -10927.1702  EKtot   =      2299.3989  EPtot      =    -13226.5691
 BOND   =        17.3487  ANGLE   =        37.2088  DIHED      =        23.0071
 1-4 NB =         7.5382  1-4 EEL =       -66.4469  VDWAALS    =      2153.4086
 EELEC  =    -15398.6336  EHBOND  =         0.0000  RESTRAINT  =         0.0000
 EKCMT  =         0.0000  VIRIAL  =         0.0000  VOLUME     =     41528.3468
                                                    Density    =         0.9811
 DV/DL  =         0.4914
 ------------------------------------------------------------------------------

      A V E R A G E S   O V E R   50000 S T E P S

 NSTEP =    50000   TIME(PS) =     120.000  TEMP(K) =   297.58  PRESS =     0.0
 Etot   =    -10443.0167  EKtot   =      2415.3426  EPtot      =    -12858.3593
 BOND   =        17.7878  ANGLE   =        31.8071  DIHED      =        18.5835
 1-4 NB =         7.8844  1-4 EEL =       -66.7680  VDWAALS    =      1907.4656
 EELEC  =    -14775.1196  EHBOND  =         0.0000  RESTRAINT  =         0.0000
 EKCMT  =         0.0000  VIRIAL  =         0.0000  VOLUME     =     41290.9059
                                                    Density    =         0.9868
 DV/DL  =         2.8367
 ------------------------------------------------------------------------------

      R M S  F L U C T U A T I O N S

 NSTEP =    50000   TIME(PS) =     120.000  TEMP(K) =    10.66  PRESS =     0.0
 Etot   =       276.8740  EKtot   =        86.5227  EPtot      =       199.2749
 BOND   =         3.8490  ANGLE   =         3.1665  DIHED      =         2.7479
 1-4 NB =         0.8553  1-4 EEL =         1.8583  VDWAALS    =       101.5269
 EELEC  =       288.5758  EHBOND  =         0.0000  RESTRAINT  =         0.0000
 EKCMT  =         0.0000  VIRIAL  =         0.0000  VOLUME     =       309.6474
                                                    Density    =         0.0074
 DV/DL  =         1.9988
 ------------------------------------------------------------------------------

      A V E R A G E S   O V E R   50000 S T E P S

 NSTEP =    50000   TIME(PS) =     120.000  TEMP(K) =   297.57  PRESS =     0.0
 Etot   =    -10443.0423  EKtot   =      2415.3170  EPtot      =    -12858.3593
 BOND   =        17.7878  ANGLE   =        31.8071  DIHED      =        18.5835
 1-4 NB =         7.8844  1-4 EEL =       -66.7680  VDWAALS    =      1907.4656
 EELEC  =    -14775.1196  EHBOND  =         0.0000  RESTRAINT  =         0.0000
 EKCMT  =         0.0000  VIRIAL  =         0.0000  VOLUME     =     41290.9059
                                                    Density    =         0.9882
 DV/DL  =         2.8367
 ------------------------------------------------------------------------------

      R M S  F L U C T U A T I O N S

 NSTEP =    50000   TIME(PS) =     120.000  TEMP(K) =    10.66  PRESS =     0.0
 Etot   =       276.8658  EKtot   =        86.5035  EPtot      =       199.2749
 BOND   =         3.8490  ANGLE   =         3.1665  DIHED      =         2.7479
 1-4 NB =         0.8553  1-4 EEL =         1.8583  VDWAALS    =       101.5269
 EELEC  =       288.5758  EHBOND  =         0.0000  RESTRAINT  =         0.0000
 EKCMT  =         0.0000  VIRIAL  =         0.0000  VOLUME     =       309.6474
                                                    Density    =         0.0075
 DV/DL  =         1.9988
 ------------------------------------------------------------------------------

      DV/DL, AVERAGES OVER   50000 STEPS

 NSTEP =    50000   TIME(PS) =     120.000  TEMP(K) =    10.66  PRESS =     0.0
 Etot   =         0.0000  EKtot   =         0.0000  EPtot      =         2.8077
 BOND   =         0.0000  ANGLE   =         0.0000  DIHED      =         0.0000
 1-4 NB =         0.0000  1-4 EEL =         0.0000  VDWAALS    =        -0.2542
 EELEC  =        -0.2355  EHBOND  =         0.0000  RESTRAINT  =         0.0000
 EKCMT  =         0.0000  VIRIAL  =         0.0000  VOLUME     =         0.0000
                                                    Density    =         0.0000
 DV/DL  =         2.8077
 ------------------------------------------------------------------------------

      A V E R A G E S   O V E R   50000 S T E P S

 NSTEP =   100000   TIME(PS) =     220.000  TEMP(K) =   299.07  PRESS =     0.0
 Etot   =    -10412.3580  EKtot   =      2427.4626  EPtot      =    -12839.8206
 BOND   =        18.1304  ANGLE   =        32.2211  DIHED      =        18.1655
 1-4 NB =         8.0816  1-4 EEL =       -66.0390  VDWAALS    =      1894.1047
 EELEC  =    -14744.4849  EHBOND  =         0.0000  RESTRAINT  =         0.0000
 EKCMT  =         0.0000  VIRIAL  =         0.0000  VOLUME     =     41208.2119
                                                    Density    =         0.9888
 DV/DL  =         2.7588
 ------------------------------------------------------------------------------

      R M S  F L U C T U A T I O N S

 NSTEP =   100000   TIME(PS) =     220.000  TEMP(K) =     4.72  PRESS =     0.0
 Etot   =        64.5972  EKtot   =        38.3491  EPtot      =        53.1374
 BOND   =         3.8689  ANGLE   =         3.2850  DIHED      =         2.6955
 1-4 NB =         0.9121  1-4 EEL =         2.1143  VDWAALS    =        56.1489
 EELEC  =        87.0140  EHBOND  =         0.0000  RESTRAINT  =         0.0000
 EKCMT  =         0.0000  VIRIAL  =         0.0000  VOLUME     =       341.2216
                                                    Density    =         0.0082
 DV/DL  =         2.0418
 ------------------------------------------------------------------------------

      A V E R A G E S   O V E R   50000 S T E P S

 NSTEP =   100000   TIME(PS) =     220.000  TEMP(K) =   299.07  PRESS =     0.0
 Etot   =    -10412.3614  EKtot   =      2427.4592  EPtot      =    -12839.8206
 BOND   =        18.1304  ANGLE   =        32.2211  DIHED      =        18.1655
 1-4 NB =         8.0816  1-4 EEL =       -66.0390  VDWAALS    =      1894.1047
 EELEC  =    -14744.4849  EHBOND  =         0.0000  RESTRAINT  =         0.0000
 EKCMT  =         0.0000  VIRIAL  =         0.0000  VOLUME     =     41208.2119
                                                    Density    =         0.9902
 DV/DL  =         2.7588
 ------------------------------------------------------------------------------

      R M S  F L U C T U A T I O N S

 NSTEP =   100000   TIME(PS) =     220.000  TEMP(K) =     4.72  PRESS =     0.0
 Etot   =        64.5846  EKtot   =        38.3488  EPtot      =        53.1374
 BOND   =         3.8689  ANGLE   =         3.2850  DIHED      =         2.6955
 1-4 NB =         0.9121  1-4 EEL =         2.1143  VDWAALS    =        56.1489
 EELEC  =        87.0140  EHBOND  =         0.0000  RESTRAINT  =         0.0000
 EKCMT  =         0.0000  VIRIAL  =         0.0000  VOLUME     =       341.2216
                                                    Density    =         0.0082
 DV/DL  =         2.0418
 ------------------------------------------------------------------------------

      DV/DL, AVERAGES OVER   50000 STEPS

 NSTEP =   100000   TIME(PS) =     220.000  TEMP(K) =     4.72  PRESS =     0.0
 Etot   =         0.0000  EKtot   =         0.0000  EPtot      =         2.7314
 BOND   =         0.0000  ANGLE   =         0.0000  DIHED      =         0.0000
 1-4 NB =         0.0000  1-4 EEL =         0.0000  VDWAALS    =        -0.2547
 EELEC  =        -0.2356  EHBOND  =         0.0000  RESTRAINT  =         0.0000
 EKCMT  =         0.0000  VIRIAL  =         0.0000  VOLUME     =         0.0000
                                                    Density    =         0.0000
 DV/DL  =         2.7314
 ------------------------------------------------------------------------------

      A V E R A G E S   O V E R   50000 S T E P S

 NSTEP =   500000   TIME(PS) =    1020.000  TEMP(K) =   298.99  PRESS =     0.0
 Etot   =    -10395.3576  EKtot   =      2426.8135  EPtot      =    -12822.1711
 BOND   =        17.6135  ANGLE   =        32.4740  DIHED      =        18.1824
 1-4 NB =         7.8536  1-4 EEL =       -70.3829  VDWAALS    =      1888.9944
 EELEC  =    -14716.9061  EHBOND  =         0.0000  RESTRAINT  =         0.0000
 EKCMT  =         0.0000  VIRIAL  =         0.0000  VOLUME     =     41437.2314
                                                    Density    =         0.9834
 DV/DL  =         2.8122
 ------------------------------------------------------------------------------

      R M S  F L U C T U A T I O N S

 NSTEP =   500000   TIME(PS) =    1020.000  TEMP(K) =     4.53  PRESS =     0.0
 Etot   =        71.1072  EKtot   =        36.7736  EPtot      =        60.9446
 BOND   =         3.7021  ANGLE   =         3.3341  DIHED      =         2.6617
 1-4 NB =         0.8672  1-4 EEL =         1.6747  VDWAALS    =        56.1305
 EELEC  =        95.2242  EHBOND  =         0.0000  RESTRAINT  =         0.0000
 EKCMT  =         0.0000  VIRIAL  =         0.0000  VOLUME     =       400.6139
                                                    Density    =         0.0095
 DV/DL  =         1.9900
 ------------------------------------------------------------------------------

      A V E R A G E S   O V E R   50000 S T E P S

 NSTEP =   500000   TIME(PS) =    1020.000  TEMP(K) =   299.00  PRESS =     0.0
 Etot   =    -10395.3131  EKtot   =      2426.8579  EPtot      =    -12822.1711
 BOND   =        17.6135  ANGLE   =        32.4740  DIHED      =        18.1824
 1-4 NB =         7.8536  1-4 EEL =       -70.3829  VDWAALS    =      1888.9944
 EELEC  =    -14716.9061  EHBOND  =         0.0000  RESTRAINT  =         0.0000
 EKCMT  =         0.0000  VIRIAL  =         0.0000  VOLUME     =     41437.2314
                                                    Density    =         0.9847
 DV/DL  =         2.8122
 ------------------------------------------------------------------------------

      R M S  F L U C T U A T I O N S

 NSTEP =   500000   TIME(PS) =    1020.000  TEMP(K) =     4.53  PRESS =     0.0
 Etot   =        71.1334  EKtot   =        36.7576  EPtot      =        60.9446
 BOND   =         3.7021  ANGLE   =         3.3341  DIHED      =         2.6617
 1-4 NB =         0.8672  1-4 EEL =         1.6747  VDWAALS    =        56.1305
 EELEC  =        95.2242  EHBOND  =         0.0000  RESTRAINT  =         0.0000
 EKCMT  =         0.0000  VIRIAL  =         0.0000  VOLUME     =       400.6139
                                                    Density    =         0.0095
 DV/DL  =         1.9900
 ------------------------------------------------------------------------------

      DV/DL, AVERAGES OVER   50000 STEPS

 NSTEP =   500000   TIME(PS) =    1020.000  TEMP(K) =     4.53  PRESS =     0.0
 Etot   =         0.0000  EKtot   =         0.0000  EPtot      =         2.7842
 BOND   =         0.0000  ANGLE   =         0.0000  DIHED      =         0.0000
 1-4 NB =         0.0000  1-4 EEL =         0.0000  VDWAALS    =        -0.2533
 EELEC  =        -0.2354  EHBOND  =         0.0000  RESTRAINT  =         0.0000
 EKCMT  =         0.0000  VIRIAL  =         0.0000  VOLUME     =         0.0000
                                                    Density    =         0.0000
 DV/DL  =         2.7842
 ------------------------------------------------------------------------------

      A V E R A G E S   O V E R  500000 S T E P S

 NSTEP =   500000   TIME(PS) =    1020.000  TEMP(K) =   298.73  PRESS =     0.0
 Etot   =    -10416.8067  EKtot   =      2424.6812  EPtot      =    -12841.4880
 BOND   =        17.8626  ANGLE   =        32.1337  DIHED      =        18.4167
 1-4 NB =         7.8778  1-4 EEL =       -68.6005  VDWAALS    =      1897.6837
 EELEC  =    -14746.8620  EHBOND  =         0.0000  RESTRAINT  =         0.0000
 EKCMT  =         0.0000  VIRIAL  =         0.0000  VOLUME     =     41243.0729
                                                    Density    =         0.9880
 DV/DL  =         2.7457
 ------------------------------------------------------------------------------

      R M S  F L U C T U A T I O N S

 NSTEP =   500000   TIME(PS) =    1020.000  TEMP(K) =     5.57  PRESS =     0.0
 Etot   =       108.5323  EKtot   =        45.2055  EPtot      =        82.5562
 BOND   =         3.7682  ANGLE   =         3.2368  DIHED      =         2.6654
 1-4 NB =         0.8725  1-4 EEL =         2.7521  VDWAALS    =        62.8018
 EELEC  =       125.7704  EHBOND  =         0.0000  RESTRAINT  =         0.0000
 EKCMT  =         0.0000  VIRIAL  =         0.0000  VOLUME     =       333.7521
                                                    Density    =         0.0080
 DV/DL  =         2.0402
 ------------------------------------------------------------------------------

      A V E R A G E S   O V E R  500000 S T E P S

 NSTEP =   500000   TIME(PS) =    1020.000  TEMP(K) =   298.73  PRESS =     0.0
 Etot   =    -10416.7943  EKtot   =      2424.6937  EPtot      =    -12841.4880
 BOND   =        17.8626  ANGLE   =        32.1337  DIHED      =        18.4167
 1-4 NB =         7.8778  1-4 EEL =       -68.6005  VDWAALS    =      1897.6837
 EELEC  =    -14746.8620  EHBOND  =         0.0000  RESTRAINT  =         0.0000
 EKCMT  =         0.0000  VIRIAL  =         0.0000  VOLUME     =     41243.0729
                                                    Density    =         0.9894
 DV/DL  =         2.7457
 ------------------------------------------------------------------------------

      R M S  F L U C T U A T I O N S

 NSTEP =   500000   TIME(PS) =    1020.000  TEMP(K) =     5.57  PRESS =     0.0
 Etot   =       108.5336  EKtot   =        45.2033  EPtot      =        82.5562
 BOND   =         3.7682  ANGLE   =         3.2368  DIHED      =         2.6654
 1-4 NB =         0.8725  1-4 EEL =         2.7521  VDWAALS    =        62.8018
 EELEC  =       125.7704  EHBOND  =         0.0000  RESTRAINT  =         0.0000
 EKCMT  =         0.0000  VIRIAL  =         0.0000  VOLUME     =       333.7521
                                                    Density    =         0.0080
 DV/DL  =         2.0402
 ------------------------------------------------------------------------------

      DV/DL, AVERAGES OVER  500000 STEPS

 NSTEP =   500000   TIME(PS) =    1020.000  TEMP(K) =     5.57  PRESS =     0.0
 Etot   =         0.0000  EKtot   =         0.0000  EPtot      =         2.7182
 BOND   =         0.0000  ANGLE   =         0.0000  DIHED      =         0.0000
 1-4 NB =         0.0000  1-4 EEL =         0.0000  VDWAALS    =        -0.2545
 EELEC  =        -0.2356  EHBOND  =         0.0000  RESTRAINT  =         0.0000
 EKCMT  =         0.0000  VIRIAL  =         0.0000  VOLUME     =         0.0000
                                                    Density    =         0.0000
 DV/DL  =         2.7182
 ------------------------------------------------------------------------------
