-------------------------------------------------------
          Amber 16 PMEMD                              2016
          -------------------------------------------------------

  [-O]verwriting output

File Assignments:

 Here is the input file:

TI/FEP, NpT, vdW+bonded transformation
 &cntrl
 ! please adjust namelist parameters to your needs!

 ! parameters for general MD
 imin = 0, nstlim = 500000, irest = 1, ntx = 5, dt = 0.002,
 ntt = 3, temp0 = 298.0, gamma_ln = 2.0, ig = -1,
 ntb = 2,
 ntp = 1, barostat = 2, pres0 = 1.01325, taup = 2.0,
 ntwe = 100, ntwx = 10000, ntpr = 1000, ntwr = 50000, ntave = 50000,
 ioutfm = 1, iwrap = 1, ntxo = 2,

 ! parameters for alchemical free energy simulation
 ntc = 2, ntf = 1,
 noshakemask = ':1,2',

 icfe = 1, ifsc = 1, clambda = 0.6839, scalpha = 0.5, scbeta = 12.0,
 ifmbar = 1, mbar_lambda = 0.0 0.0479 0.1150 0.2063 0.3160 0.4373 0.5626 0.6839
 mbar_states = 12, bar_intervall = 1000,   ! ntpr = bar_intervall for alchemica

 timask1=':1', timask2=':2',
scmask1=':1@H34',
scmask2=':2@Cl18',
 crgmask = ':1@H34 | :2@Cl18',
 /
 &ewald
 /

Note: ig = -1. Setting random seed to   661634 based on wallclock time in
      microseconds.

--------------------------------------------------------------------------------
   1.  RESOURCE   USE:
--------------------------------------------------------------------------------

 getting box info from netcdf restart file
 NATOM  =   46594 NTYPES =      28 NBONH =   43475 MBONA  =    3194
 NTHETH =    6827 MTHETA =    4353 NPHIH =   13979 MPHIA  =   13703
 NHPARM =       0 NPARM  =       0 NNB   =   87745 NRES   =   13889
 NBONA  =    3194 NTHETA =    4353 NPHIA =   13703 NUMBND =      89
 NUMANG =     195 NPTRA  =     203 NATYP =      50 NPHB   =       1
 IFBOX  =       1 NMXRS  =      43 IFCAP =       0 NEXTRA =       0
 NCOPY  =       0

     BOX TYPE: RECTILINEAR

--------------------------------------------------------------------------------
   2.  CONTROL  DATA  FOR  THE  RUN
--------------------------------------------------------------------------------

L0

General flags:
     imin    =       0, nmropt  =       0

Nature and format of input:
     ntx     =       5, irest   =       1, ntrx    =       1

Nature and format of output:
     ntxo    =       2, ntpr    =    1000, ntrx    =       1, ntwr    =   50000
     iwrap   =       1, ntwx    =   10000, ntwv    =       0, ntwe    =     100
     ioutfm  =       1, ntwprt  =       0, idecomp =       0, rbornstat=      0

Potential function:
     ntf     =       1, ntb     =       2, igb     =       0, nsnb    =      25
     ipol    =       0, gbsa    =       0, iesp    =       0
     dielc   =   1.00000, cut     =   8.00000, intdiel =   1.00000

Frozen or restrained atoms:
     ibelly  =       0, ntr     =       0

Molecular dynamics:
     nstlim  =    500000, nscm    =      1000, nrespa  =         1
     t       =   0.00000, dt      =   0.00200, vlimit  =  -1.00000

Langevin dynamics temperature regulation:
     ig      =  661634
     temp0   = 298.00000, tempi   =   0.00000, gamma_ln=   2.00000

Pressure regulation:
     ntp     =       1
     pres0   =   1.01325, comp    =  44.60000, taup    =   2.00000
     Monte-Carlo Barostat:
     mcbarint  =     100

SHAKE:
     ntc     =       2, jfastw  =       0
     tol     =   0.00001

Free energy options:
     icfe    =       1, ifsc    =       1, klambda =       1
     clambda =  0.6839, scalpha =  0.5000, scbeta  = 12.0000
     sceeorder =       2
     dynlmb =  0.0000 logdvdl =       0

FEP MBAR options:
     ifmbar  =       1,  bar_intervall =     1000
     mbar_states =      12

Ewald parameters:
     verbose =       0, ew_type =       0, nbflag  =       1, use_pme =       1
     vdwmeth =       1, eedmeth =       1, netfrc  =       1
     Box X =   87.894   Box Y =   67.207   Box Z =   78.608
     Alpha =   90.000   Beta  =   90.000   Gamma =   90.000
     NFFT1 =   96       NFFT2 =   64       NFFT3 =   80
     Cutoff=    8.000   Tol   =0.100E-04
     Ewald Coefficient =  0.34864
     Interpolation order =    4
     TI Mask 1 :1; matches     43 atoms
     TI Mask 2 :2; matches     43 atoms
     TI region 1:   46551 atoms
     TI region 2:   46551 atoms
     SC Mask 1 :1@H34; matches      1 atoms
     SC Mask 2 :2@Cl18; matches      1 atoms
Removing charge of       0.1510 from atom      43
Removing charge of      -0.0609 from atom      86
Total charge of   0.09010100 removed from       2 atoms

    MBAR - lambda values considered:
      12 total:  0.0000 0.0479 0.1150 0.2063 0.3160 0.4373 0.5626 0.6839 0.7936 0.8849 0.9520 1.0000
    Extra energies will be computed    500 times.
 Noshake mask :1,2; matches      86 atoms.

--------------------------------------------------------------------------------
   3.  ATOMIC COORDINATES AND VELOCITIES
--------------------------------------------------------------------------------

L0
 begin time read from input coords =    20.000 ps

     Molecule     1 is partially softcore
     Molecule     2 is partially softcore
 Number of triangulated 3-point waters found:    13488
   Removing shake constraints from C22   L0    1 -- H41   L0    1
   Removing shake constraints from C22   L0    1 -- H42   L0    1
   Removing shake constraints from C21   L0    1 -- H39   L0    1
   Removing shake constraints from C21   L0    1 -- H40   L0    1
   Removing shake constraints from C20   L0    1 -- H38   L0    1
   Removing shake constraints from C19   L0    1 -- H37   L0    1
   Removing shake constraints from C18   L0    1 -- H36   L0    1
   Removing shake constraints from C15   L0    1 -- H35   L0    1
   Removing shake constraints from C14   L0    1 -- H34   L0    1
   Removing shake constraints from C13   L0    1 -- H33   L0    1
   Removing shake constraints from C10   L0    1 -- H32   L0    1
   Removing shake constraints from C9    L0    1 -- H31   L0    1
   Removing shake constraints from C8    L0    1 -- H30   L0    1
   Removing shake constraints from N5    L0    1 -- H29   L0    1
   Removing shake constraints from N4    L0    1 -- H43   L0    1
   Removing shake constraints from N4    L0    1 -- H28   L0    1
   Removing shake constraints from C1    L0    1 -- H25   L0    1
   Removing shake constraints from C1    L0    1 -- H26   L0    1
   Removing shake constraints from C1    L0    1 -- H27   L0    1
   Removing shake constraints from C23   L1    2 -- H41   L1    2
   Removing shake constraints from C23   L1    2 -- H42   L1    2
   Removing shake constraints from C22   L1    2 -- H39   L1    2
   Removing shake constraints from C22   L1    2 -- H40   L1    2
   Removing shake constraints from C21   L1    2 -- H38   L1    2
   Removing shake constraints from C20   L1    2 -- H37   L1    2
   Removing shake constraints from C13   L1    2 -- H34   L1    2
   Removing shake constraints from C16   L1    2 -- H35   L1    2
   Removing shake constraints from C19   L1    2 -- H36   L1    2
   Removing shake constraints from C10   L1    2 -- H33   L1    2
   Removing shake constraints from C9    L1    2 -- H32   L1    2
   Removing shake constraints from C8    L1    2 -- H31   L1    2
   Removing shake constraints from N5    L1    2 -- H30   L1    2
   Removing shake constraints from N4    L1    2 -- H43   L1    2
   Removing shake constraints from N4    L1    2 -- H29   L1    2
   Removing shake constraints from C1    L1    2 -- H26   L1    2
   Removing shake constraints from C1    L1    2 -- H27   L1    2
   Removing shake constraints from C1    L1    2 -- H28   L1    2
 WARNING: SHAKEn bond for atoms       14       43 is partially softcore.
 Coordinates for common atoms will be synchronized from V0.
 Consider using noshake mask or disabling SHAKE.

 Number of shake restraints removed in TI region  1 :       19
 Number of shake restraints removed in TI region  2 :       18

     Sum of charges for TI region  1 =  -0.15102723
     Assuming uniform neutralizing plasma

     Sum of charges for TI region  2 =   0.06096676
     Assuming uniform neutralizing plasma

--------------------------------------------------------------------------------
   4.  RESULTS
 NSTEP =     1000   TIME(PS) =      22.000  TEMP(K) =   284.81  PRESS =     0.0
 Etot   =   -116867.7019  EKtot   =     27222.3184  EPtot      =   -144090.0203
 BOND   =      1132.6943  ANGLE   =      3117.3100  DIHED      =      4896.6239
 1-4 NB =      1385.7972  1-4 EEL =     15946.1954  VDWAALS    =     17438.5916
 EELEC  =   -188007.2327  EHBOND  =         0.0000  RESTRAINT  =         0.0000
 EKCMT  =         0.0000  VIRIAL  =         0.0000  VOLUME     =    465735.5813
                                                    Density    =         1.0230
 DV/DL  =         5.6802
 ------------------------------------------------------------------------------

      A V E R A G E S   O V E R   50000 S T E P S

 NSTEP =    50000   TIME(PS) =     120.000  TEMP(K) =   296.94  PRESS =     0.0
 Etot   =   -111582.8894  EKtot   =     28381.7639  EPtot      =   -139964.6533
 BOND   =      1187.7090  ANGLE   =      3061.1153  DIHED      =      4884.3177
 1-4 NB =      1412.7904  1-4 EEL =     15980.9833  VDWAALS    =     15715.7527
 EELEC  =   -182207.3216  EHBOND  =         0.0000  RESTRAINT  =         0.0000
 EKCMT  =         0.0000  VIRIAL  =         0.0000  VOLUME     =    462469.5026
                                                    Density    =         1.0302
 DV/DL  =         1.4107
 ------------------------------------------------------------------------------

      R M S  F L U C T U A T I O N S

 NSTEP =    50000   TIME(PS) =     120.000  TEMP(K) =    10.42  PRESS =     0.0
 Etot   =      3099.7812  EKtot   =       996.3092  EPtot      =      2123.2149
 BOND   =        48.9382  ANGLE   =        97.6728  DIHED      =        33.9982
 1-4 NB =        16.3698  1-4 EEL =        43.2138  VDWAALS    =       867.6352
 EELEC  =      2827.6239  EHBOND  =         0.0000  RESTRAINT  =         0.0000
 EKCMT  =         0.0000  VIRIAL  =         0.0000  VOLUME     =      1473.0871
                                                    Density    =         0.0033
 DV/DL  =         3.5366
 ------------------------------------------------------------------------------

      A V E R A G E S   O V E R   50000 S T E P S

 NSTEP =    50000   TIME(PS) =     120.000  TEMP(K) =   296.94  PRESS =     0.0
 Etot   =   -111582.8370  EKtot   =     28381.8163  EPtot      =   -139964.6533
 BOND   =      1187.7090  ANGLE   =      3061.1153  DIHED      =      4884.3177
 1-4 NB =      1412.7904  1-4 EEL =     15980.9833  VDWAALS    =     15715.7527
 EELEC  =   -182207.3216  EHBOND  =         0.0000  RESTRAINT  =         0.0000
 EKCMT  =         0.0000  VIRIAL  =         0.0000  VOLUME     =    462469.5026
                                                    Density    =         1.0304
 DV/DL  =         1.4107
 ------------------------------------------------------------------------------

      R M S  F L U C T U A T I O N S

 NSTEP =    50000   TIME(PS) =     120.000  TEMP(K) =    10.42  PRESS =     0.0
 Etot   =      3099.7387  EKtot   =       996.2697  EPtot      =      2123.2149
 BOND   =        48.9382  ANGLE   =        97.6728  DIHED      =        33.9982
 1-4 NB =        16.3698  1-4 EEL =        43.2138  VDWAALS    =       867.6352
 EELEC  =      2827.6239  EHBOND  =         0.0000  RESTRAINT  =         0.0000
 EKCMT  =         0.0000  VIRIAL  =         0.0000  VOLUME     =      1473.0871
                                                    Density    =         0.0033
 DV/DL  =         3.5366
 ------------------------------------------------------------------------------

      DV/DL, AVERAGES OVER   50000 STEPS

 NSTEP =    50000   TIME(PS) =     120.000  TEMP(K) =    10.42  PRESS =     0.0
 Etot   =         0.0000  EKtot   =         0.0000  EPtot      =         1.3972
 BOND   =         0.0000  ANGLE   =         0.0000  DIHED      =         0.0000
 1-4 NB =         0.0000  1-4 EEL =         0.0000  VDWAALS    =        -0.2837
 EELEC  =        -0.1933  EHBOND  =         0.0000  RESTRAINT  =         0.0000
 EKCMT  =         0.0000  VIRIAL  =         0.0000  VOLUME     =         0.0000
                                                    Density    =         0.0000
 DV/DL  =         1.3972
 ------------------------------------------------------------------------------

      A V E R A G E S   O V E R   50000 S T E P S

 NSTEP =   100000   TIME(PS) =     220.000  TEMP(K) =   298.07  PRESS =     0.0
 Etot   =   -111168.0083  EKtot   =     28490.2645  EPtot      =   -139658.2728
 BOND   =      1188.4295  ANGLE   =      3072.0479  DIHED      =      4884.5083
 1-4 NB =      1411.3950  1-4 EEL =     15966.8048  VDWAALS    =     15596.6126
 EELEC  =   -181778.0708  EHBOND  =         0.0000  RESTRAINT  =         0.0000
 EKCMT  =         0.0000  VIRIAL  =         0.0000  VOLUME     =    462693.3632
                                                    Density    =         1.0297
 DV/DL  =         0.9256
 ------------------------------------------------------------------------------

      R M S  F L U C T U A T I O N S

 NSTEP =   100000   TIME(PS) =     220.000  TEMP(K) =     1.34  PRESS =     0.0
 Etot   =       247.7693  EKtot   =       128.3149  EPtot      =       212.6319
 BOND   =        28.5745  ANGLE   =        42.5124  DIHED      =        24.6280
 1-4 NB =        15.2274  1-4 EEL =        41.4645  VDWAALS    =       190.2112
 EELEC  =       330.4196  EHBOND  =         0.0000  RESTRAINT  =         0.0000
 EKCMT  =         0.0000  VIRIAL  =         0.0000  VOLUME     =      1571.7685
                                                    Density    =         0.0035
 DV/DL  =         3.2379
 ------------------------------------------------------------------------------

      A V E R A G E S   O V E R   50000 S T E P S

 NSTEP =   100000   TIME(PS) =     220.000  TEMP(K) =   298.08  PRESS =     0.0
 Etot   =   -111167.9480  EKtot   =     28490.3248  EPtot      =   -139658.2728
 BOND   =      1188.4295  ANGLE   =      3072.0479  DIHED      =      4884.5083
 1-4 NB =      1411.3950  1-4 EEL =     15966.8048  VDWAALS    =     15596.6126
 EELEC  =   -181778.0708  EHBOND  =         0.0000  RESTRAINT  =         0.0000
 EKCMT  =         0.0000  VIRIAL  =         0.0000  VOLUME     =    462693.3632
                                                    Density    =         1.0299
 DV/DL  =         0.9256
 ------------------------------------------------------------------------------

      R M S  F L U C T U A T I O N S

 NSTEP =   100000   TIME(PS) =     220.000  TEMP(K) =     1.34  PRESS =     0.0
 Etot   =       247.7882  EKtot   =       128.3153  EPtot      =       212.6319
 BOND   =        28.5745  ANGLE   =        42.5124  DIHED      =        24.6280
 1-4 NB =        15.2274  1-4 EEL =        41.4645  VDWAALS    =       190.2112
 EELEC  =       330.4196  EHBOND  =         0.0000  RESTRAINT  =         0.0000
 EKCMT  =         0.0000  VIRIAL  =         0.0000  VOLUME     =      1571.7685
                                                    Density    =         0.0035
 DV/DL  =         3.2379
 ------------------------------------------------------------------------------

      DV/DL, AVERAGES OVER   50000 STEPS

 NSTEP =   100000   TIME(PS) =     220.000  TEMP(K) =     1.34  PRESS =     0.0
 Etot   =         0.0000  EKtot   =         0.0000  EPtot      =         0.9161
 BOND   =         0.0000  ANGLE   =         0.0000  DIHED      =         0.0000
 1-4 NB =         0.0000  1-4 EEL =         0.0000  VDWAALS    =        -0.2836
 EELEC  =        -0.1933  EHBOND  =         0.0000  RESTRAINT  =         0.0000
 EKCMT  =         0.0000  VIRIAL  =         0.0000  VOLUME     =         0.0000
                                                    Density    =         0.0000
 DV/DL  =         0.9161
 ------------------------------------------------------------------------------

      A V E R A G E S   O V E R   50000 S T E P S

 NSTEP =   500000   TIME(PS) =    1020.000  TEMP(K) =   298.18  PRESS =     0.0
 Etot   =   -111159.3575  EKtot   =     28500.5739  EPtot      =   -139659.9313
 BOND   =      1189.9615  ANGLE   =      3069.4853  DIHED      =      4883.6234
 1-4 NB =      1411.9958  1-4 EEL =     15972.4202  VDWAALS    =     15597.2316
 EELEC  =   -181784.6491  EHBOND  =         0.0000  RESTRAINT  =         0.0000
 EKCMT  =         0.0000  VIRIAL  =         0.0000  VOLUME     =    462555.3859
                                                    Density    =         1.0300
 DV/DL  =         1.4777
 ------------------------------------------------------------------------------

      R M S  F L U C T U A T I O N S

 NSTEP =   500000   TIME(PS) =    1020.000  TEMP(K) =     1.33  PRESS =     0.0
 Etot   =       234.4392  EKtot   =       127.2229  EPtot      =       198.3679
 BOND   =        28.8671  ANGLE   =        41.9484  DIHED      =        24.2572
 1-4 NB =        15.3395  1-4 EEL =        43.1225  VDWAALS    =       191.7242
 EELEC  =       317.3928  EHBOND  =         0.0000  RESTRAINT  =         0.0000
 EKCMT  =         0.0000  VIRIAL  =         0.0000  VOLUME     =      1174.7996
                                                    Density    =         0.0026
 DV/DL  =         3.5371
 ------------------------------------------------------------------------------

      A V E R A G E S   O V E R   50000 S T E P S

 NSTEP =   500000   TIME(PS) =    1020.000  TEMP(K) =   298.18  PRESS =     0.0
 Etot   =   -111159.3423  EKtot   =     28500.5890  EPtot      =   -139659.9313
 BOND   =      1189.9615  ANGLE   =      3069.4853  DIHED      =      4883.6234
 1-4 NB =      1411.9958  1-4 EEL =     15972.4202  VDWAALS    =     15597.2316
 EELEC  =   -181784.6491  EHBOND  =         0.0000  RESTRAINT  =         0.0000
 EKCMT  =         0.0000  VIRIAL  =         0.0000  VOLUME     =    462555.3859
                                                    Density    =         1.0302
 DV/DL  =         1.4777
 ------------------------------------------------------------------------------

      R M S  F L U C T U A T I O N S

 NSTEP =   500000   TIME(PS) =    1020.000  TEMP(K) =     1.33  PRESS =     0.0
 Etot   =       234.4062  EKtot   =       127.2032  EPtot      =       198.3679
 BOND   =        28.8671  ANGLE   =        41.9484  DIHED      =        24.2572
 1-4 NB =        15.3395  1-4 EEL =        43.1225  VDWAALS    =       191.7242
 EELEC  =       317.3928  EHBOND  =         0.0000  RESTRAINT  =         0.0000
 EKCMT  =         0.0000  VIRIAL  =         0.0000  VOLUME     =      1174.7996
                                                    Density    =         0.0026
 DV/DL  =         3.5371
 ------------------------------------------------------------------------------

      DV/DL, AVERAGES OVER   50000 STEPS

 NSTEP =   500000   TIME(PS) =    1020.000  TEMP(K) =     1.33  PRESS =     0.0
 Etot   =         0.0000  EKtot   =         0.0000  EPtot      =         1.4608
 BOND   =         0.0000  ANGLE   =         0.0000  DIHED      =         0.0000
 1-4 NB =         0.0000  1-4 EEL =         0.0000  VDWAALS    =        -0.2837
 EELEC  =        -0.1933  EHBOND  =         0.0000  RESTRAINT  =         0.0000
 EKCMT  =         0.0000  VIRIAL  =         0.0000  VOLUME     =         0.0000
                                                    Density    =         0.0000
 DV/DL  =         1.4608
 ------------------------------------------------------------------------------

      A V E R A G E S   O V E R  500000 S T E P S

 NSTEP =   500000   TIME(PS) =    1020.000  TEMP(K) =   297.93  PRESS =     0.0
 Etot   =   -111240.4821  EKtot   =     28476.6576  EPtot      =   -139717.1397
 BOND   =      1188.4632  ANGLE   =      3067.3583  DIHED      =      4885.0934
 1-4 NB =      1412.4096  1-4 EEL =     15984.9782  VDWAALS    =     15619.1131
 EELEC  =   -181874.5555  EHBOND  =         0.0000  RESTRAINT  =         0.0000
 EKCMT  =         0.0000  VIRIAL  =         0.0000  VOLUME     =    462465.8802
                                                    Density    =         1.0302
 DV/DL  =         1.0358
 ------------------------------------------------------------------------------

      R M S  F L U C T U A T I O N S

 NSTEP =   500000   TIME(PS) =    1020.000  TEMP(K) =     3.55  PRESS =     0.0
 Etot   =      1011.2813  EKtot   =       339.7137  EPtot      =       700.4625
 BOND   =        31.5346  ANGLE   =        50.4950  DIHED      =        25.3005
 1-4 NB =        15.5300  1-4 EEL =        44.8775  VDWAALS    =       326.9415
 EELEC  =       944.6369  EHBOND  =         0.0000  RESTRAINT  =         0.0000
 EKCMT  =         0.0000  VIRIAL  =         0.0000  VOLUME     =      1127.2532
                                                    Density    =         0.0025
 DV/DL  =         3.3526
 ------------------------------------------------------------------------------

      A V E R A G E S   O V E R  500000 S T E P S

 NSTEP =   500000   TIME(PS) =    1020.000  TEMP(K) =   297.93  PRESS =     0.0
 Etot   =   -111240.4600  EKtot   =     28476.6797  EPtot      =   -139717.1397
 BOND   =      1188.4632  ANGLE   =      3067.3583  DIHED      =      4885.0934
 1-4 NB =      1412.4096  1-4 EEL =     15984.9782  VDWAALS    =     15619.1131
 EELEC  =   -181874.5555  EHBOND  =         0.0000  RESTRAINT  =         0.0000
 EKCMT  =         0.0000  VIRIAL  =         0.0000  VOLUME     =    462465.8802
                                                    Density    =         1.0304
 DV/DL  =         1.0358
 ------------------------------------------------------------------------------

      R M S  F L U C T U A T I O N S

 NSTEP =   500000   TIME(PS) =    1020.000  TEMP(K) =     3.55  PRESS =     0.0
 Etot   =      1011.2716  EKtot   =       339.7068  EPtot      =       700.4625
 BOND   =        31.5346  ANGLE   =        50.4950  DIHED      =        25.3005
 1-4 NB =        15.5300  1-4 EEL =        44.8775  VDWAALS    =       326.9415
 EELEC  =       944.6369  EHBOND  =         0.0000  RESTRAINT  =         0.0000
 EKCMT  =         0.0000  VIRIAL  =         0.0000  VOLUME     =      1127.2532
                                                    Density    =         0.0025
 DV/DL  =         3.3526
 ------------------------------------------------------------------------------

      DV/DL, AVERAGES OVER  500000 STEPS

 NSTEP =   500000   TIME(PS) =    1020.000  TEMP(K) =     3.55  PRESS =     0.0
 Etot   =         0.0000  EKtot   =         0.0000  EPtot      =         1.0258
 BOND   =         0.0000  ANGLE   =         0.0000  DIHED      =         0.0000
 1-4 NB =         0.0000  1-4 EEL =         0.0000  VDWAALS    =        -0.2837
 EELEC  =        -0.1933  EHBOND  =         0.0000  RESTRAINT  =         0.0000
 EKCMT  =         0.0000  VIRIAL  =         0.0000  VOLUME     =         0.0000
                                                    Density    =         0.0000
 DV/DL  =         1.0258
 ------------------------------------------------------------------------------
