-------------------------------------------------------
          Amber 16 PMEMD                              2016
          -------------------------------------------------------

  [-O]verwriting output

File Assignments:

 Here is the input file:

TI/FEP, NpT, recharge transformation
 &cntrl
 ! please adjust namelist parameters to your needs!

 ! parameters for general MD
 imin = 0, nstlim = 500000, irest = 1, ntx = 5, dt = 0.002,
 ntt = 3, temp0 = 298.0, gamma_ln = 2.0, ig = -1,
 ntb = 2,
 ntp = 1, barostat = 2, pres0 = 1.01325, taup = 2.0,
 ntwe = 100, ntwx = 10000, ntpr = 1000, ntwr = 50000, ntave = 50000,
 ioutfm = 1, iwrap = 1, ntxo = 2,

 ! parameters for alchemical free energy simulation
 ntc = 2, ntf = 1,
 noshakemask = ':1,2',

 icfe = 1, ifsc = 0, clambda = 0.25, scalpha = 0.5, scbeta = 12.0,
 ifmbar = 1, mbar_lambda = 0.00 0.25 0.50 0.75 1.00,
 mbar_states = 5, bar_intervall = 1000,   ! ntpr = bar_intervall for alchemical

 timask1=':1', timask2=':2',
scmask1='',
scmask2='',
 crgmask = ':1@Cl18',
 /
 &ewald
 /

Note: ig = -1. Setting random seed to   235653 based on wallclock time in
      microseconds.

--------------------------------------------------------------------------------
   1.  RESOURCE   USE:
--------------------------------------------------------------------------------

 getting box info from netcdf restart file
 NATOM  =    4115 NTYPES =      13 NBONH =    4065 MBONA  =      56
 NTHETH =      76 MTHETA =      86 NPHIH =     150 MPHIA  =     136
 NHPARM =       0 NPARM  =       0 NNB   =    5842 NRES   =    1345
 NBONA  =      56 NTHETA =      86 NPHIA =     136 NUMBND =      22
 NUMANG =      35 NPTRA  =      14 NATYP =      17 NPHB   =       1
 IFBOX  =       1 NMXRS  =      43 IFCAP =       0 NEXTRA =       0
 NCOPY  =       0

     BOX TYPE: RECTILINEAR

--------------------------------------------------------------------------------
   2.  CONTROL  DATA  FOR  THE  RUN
--------------------------------------------------------------------------------

L1

General flags:
     imin    =       0, nmropt  =       0

Nature and format of input:
     ntx     =       5, irest   =       1, ntrx    =       1

Nature and format of output:
     ntxo    =       2, ntpr    =    1000, ntrx    =       1, ntwr    =   50000
     iwrap   =       1, ntwx    =   10000, ntwv    =       0, ntwe    =     100
     ioutfm  =       1, ntwprt  =       0, idecomp =       0, rbornstat=      0

Potential function:
     ntf     =       1, ntb     =       2, igb     =       0, nsnb    =      25
     ipol    =       0, gbsa    =       0, iesp    =       0
     dielc   =   1.00000, cut     =   8.00000, intdiel =   1.00000

Frozen or restrained atoms:
     ibelly  =       0, ntr     =       0

Molecular dynamics:
     nstlim  =    500000, nscm    =      1000, nrespa  =         1
     t       =   0.00000, dt      =   0.00200, vlimit  =  -1.00000

Langevin dynamics temperature regulation:
     ig      =  235653
     temp0   = 298.00000, tempi   =   0.00000, gamma_ln=   2.00000

Pressure regulation:
     ntp     =       1
     pres0   =   1.01325, comp    =  44.60000, taup    =   2.00000
     Monte-Carlo Barostat:
     mcbarint  =     100

SHAKE:
     ntc     =       2, jfastw  =       0
     tol     =   0.00001

Free energy options:
     icfe    =       1, ifsc    =       0, klambda =       1
     clambda =  0.2500, scalpha =  0.5000, scbeta  = 12.0000
     sceeorder =       2
     dynlmb =  0.0000 logdvdl =       0

FEP MBAR options:
     ifmbar  =       1,  bar_intervall =     1000
     mbar_states =       5

Ewald parameters:
     verbose =       0, ew_type =       0, nbflag  =       1, use_pme =       1
     vdwmeth =       1, eedmeth =       1, netfrc  =       1
     Box X =   32.703   Box Y =   37.439   Box Z =   33.758
     Alpha =   90.000   Beta  =   90.000   Gamma =   90.000
     NFFT1 =   36       NFFT2 =   40       NFFT3 =   36
     Cutoff=    8.000   Tol   =0.100E-04
     Ewald Coefficient =  0.34864
     Interpolation order =    4
     TI Mask 1 :1; matches     43 atoms
     TI Mask 2 :2; matches     43 atoms
     TI region 1:    4072 atoms
     TI region 2:    4072 atoms
Removing charge of      -0.0609 from atom      43
Total charge of  -0.06094600 removed from       1 atoms

    MBAR - lambda values considered:
       5 total:  0.0000 0.2500 0.5000 0.7500 1.0000
    Extra energies will be computed    500 times.
     Checking for mismatched coordinates.
 Noshake mask :1,2; matches      86 atoms.

--------------------------------------------------------------------------------
   3.  ATOMIC COORDINATES AND VELOCITIES
--------------------------------------------------------------------------------

L1
 begin time read from input coords =    20.000 ps

 Number of triangulated 3-point waters found:     1343
   Removing shake constraints from C23   L1    1 -- H41   L1    1
   Removing shake constraints from C23   L1    1 -- H42   L1    1
   Removing shake constraints from C22   L1    1 -- H39   L1    1
   Removing shake constraints from C22   L1    1 -- H40   L1    1
   Removing shake constraints from C21   L1    1 -- H38   L1    1
   Removing shake constraints from C20   L1    1 -- H37   L1    1
   Removing shake constraints from C13   L1    1 -- H34   L1    1
   Removing shake constraints from C16   L1    1 -- H35   L1    1
   Removing shake constraints from C19   L1    1 -- H36   L1    1
   Removing shake constraints from C10   L1    1 -- H33   L1    1
   Removing shake constraints from C9    L1    1 -- H32   L1    1
   Removing shake constraints from C8    L1    1 -- H31   L1    1
   Removing shake constraints from N5    L1    1 -- H30   L1    1
   Removing shake constraints from N4    L1    1 -- H43   L1    1
   Removing shake constraints from N4    L1    1 -- H29   L1    1
   Removing shake constraints from C1    L1    1 -- H26   L1    1
   Removing shake constraints from C1    L1    1 -- H27   L1    1
   Removing shake constraints from C1    L1    1 -- H28   L1    1
   Removing shake constraints from C23   L1    2 -- H41   L1    2
   Removing shake constraints from C23   L1    2 -- H42   L1    2
   Removing shake constraints from C22   L1    2 -- H39   L1    2
   Removing shake constraints from C22   L1    2 -- H40   L1    2
   Removing shake constraints from C21   L1    2 -- H38   L1    2
   Removing shake constraints from C20   L1    2 -- H37   L1    2
   Removing shake constraints from C13   L1    2 -- H34   L1    2
   Removing shake constraints from C16   L1    2 -- H35   L1    2
   Removing shake constraints from C19   L1    2 -- H36   L1    2
   Removing shake constraints from C10   L1    2 -- H33   L1    2
   Removing shake constraints from C9    L1    2 -- H32   L1    2
   Removing shake constraints from C8    L1    2 -- H31   L1    2
   Removing shake constraints from N5    L1    2 -- H30   L1    2
   Removing shake constraints from N4    L1    2 -- H43   L1    2
   Removing shake constraints from N4    L1    2 -- H29   L1    2
   Removing shake constraints from C1    L1    2 -- H26   L1    2
   Removing shake constraints from C1    L1    2 -- H27   L1    2
   Removing shake constraints from C1    L1    2 -- H28   L1    2
 Number of shake restraints removed:       36

     Sum of charges for TI region  1 =   1.06096699
     Assuming uniform neutralizing plasma

     Sum of charges for TI region  2 =   1.00002099
     Assuming uniform neutralizing plasma

--------------------------------------------------------------------------------
   4.  RESULTS
 NSTEP =     1000   TIME(PS) =      22.000  TEMP(K) =   283.28  PRESS =     0.0
 Etot   =    -10955.4830  EKtot   =      2309.4592  EPtot      =    -13264.9422
 BOND   =        14.2784  ANGLE   =        29.4312  DIHED      =        18.7026
 1-4 NB =         8.0096  1-4 EEL =       -66.6063  VDWAALS    =      2098.1480
 EELEC  =    -15366.9057  EHBOND  =         0.0000  RESTRAINT  =         0.0000
 EKCMT  =         0.0000  VIRIAL  =         0.0000  VOLUME     =     41450.0801
                                                    Density    =         0.9843
 DV/DL  =        -2.1391
 ------------------------------------------------------------------------------

      A V E R A G E S   O V E R   50000 S T E P S

 NSTEP =    50000   TIME(PS) =     120.000  TEMP(K) =   296.07  PRESS =     0.0
 Etot   =    -10463.3223  EKtot   =      2413.6596  EPtot      =    -12876.9818
 BOND   =        18.5310  ANGLE   =        32.5877  DIHED      =        19.5333
 1-4 NB =         7.9694  1-4 EEL =       -70.3727  VDWAALS    =      1912.1079
 EELEC  =    -14797.3384  EHBOND  =         0.0000  RESTRAINT  =         0.0000
 EKCMT  =         0.0000  VIRIAL  =         0.0000  VOLUME     =     41124.7763
                                                    Density    =         0.9922
 DV/DL  =        -1.7068
 ------------------------------------------------------------------------------

      R M S  F L U C T U A T I O N S

 NSTEP =    50000   TIME(PS) =     120.000  TEMP(K) =    10.81  PRESS =     0.0
 Etot   =       279.6085  EKtot   =        88.1407  EPtot      =       200.6550
 BOND   =         3.9032  ANGLE   =         3.4421  DIHED      =         2.7941
 1-4 NB =         0.8877  1-4 EEL =         1.9074  VDWAALS    =        98.9281
 EELEC  =       286.0057  EHBOND  =         0.0000  RESTRAINT  =         0.0000
 EKCMT  =         0.0000  VIRIAL  =         0.0000  VOLUME     =       334.9557
                                                    Density    =         0.0081
 DV/DL  =         0.4844
 ------------------------------------------------------------------------------

      A V E R A G E S   O V E R   50000 S T E P S

 NSTEP =    50000   TIME(PS) =     120.000  TEMP(K) =   296.07  PRESS =     0.0
 Etot   =    -10463.3223  EKtot   =      2413.6596  EPtot      =    -12876.9818
 BOND   =        18.5310  ANGLE   =        32.5877  DIHED      =        19.5333
 1-4 NB =         7.9694  1-4 EEL =       -70.3727  VDWAALS    =      1912.1079
 EELEC  =    -14797.3384  EHBOND  =         0.0000  RESTRAINT  =         0.0000
 EKCMT  =         0.0000  VIRIAL  =         0.0000  VOLUME     =     41124.7763
                                                    Density    =         0.9922
 DV/DL  =        -1.7068
 ------------------------------------------------------------------------------

      R M S  F L U C T U A T I O N S

 NSTEP =    50000   TIME(PS) =     120.000  TEMP(K) =    10.81  PRESS =     0.0
 Etot   =       279.6085  EKtot   =        88.1407  EPtot      =       200.6550
 BOND   =         3.9032  ANGLE   =         3.4421  DIHED      =         2.7941
 1-4 NB =         0.8877  1-4 EEL =         1.9074  VDWAALS    =        98.9281
 EELEC  =       286.0057  EHBOND  =         0.0000  RESTRAINT  =         0.0000
 EKCMT  =         0.0000  VIRIAL  =         0.0000  VOLUME     =       334.9557
                                                    Density    =         0.0081
 DV/DL  =         0.4844
 ------------------------------------------------------------------------------

      DV/DL, AVERAGES OVER   50000 STEPS

 NSTEP =    50000   TIME(PS) =     120.000  TEMP(K) =    10.81  PRESS =     0.0
 Etot   =         0.0000  EKtot   =         0.0000  EPtot      =        -1.6898
 BOND   =         0.0000  ANGLE   =         0.0000  DIHED      =         0.0000
 1-4 NB =         0.0000  1-4 EEL =         0.0000  VDWAALS    =         0.0000
 EELEC  =        -0.2295  EHBOND  =         0.0000  RESTRAINT  =         0.0000
 EKCMT  =         0.0000  VIRIAL  =         0.0000  VOLUME     =         0.0000
                                                    Density    =         0.0000
 DV/DL  =        -1.6898
 ------------------------------------------------------------------------------

      A V E R A G E S   O V E R   50000 S T E P S

 NSTEP =   100000   TIME(PS) =     220.000  TEMP(K) =   297.36  PRESS =     0.0
 Etot   =    -10409.2572  EKtot   =      2424.2020  EPtot      =    -12833.4593
 BOND   =        18.8357  ANGLE   =        32.4777  DIHED      =        19.3278
 1-4 NB =         7.9601  1-4 EEL =       -70.3679  VDWAALS    =      1893.4850
 EELEC  =    -14735.1776  EHBOND  =         0.0000  RESTRAINT  =         0.0000
 EKCMT  =         0.0000  VIRIAL  =         0.0000  VOLUME     =     41304.5121
                                                    Density    =         0.9879
 DV/DL  =        -1.7689
 ------------------------------------------------------------------------------

      R M S  F L U C T U A T I O N S

 NSTEP =   100000   TIME(PS) =     220.000  TEMP(K) =     4.60  PRESS =     0.0
 Etot   =        68.0620  EKtot   =        37.5381  EPtot      =        55.7791
 BOND   =         3.9016  ANGLE   =         3.2196  DIHED      =         2.7658
 1-4 NB =         0.8841  1-4 EEL =         1.9071  VDWAALS    =        56.9361
 EELEC  =        91.1770  EHBOND  =         0.0000  RESTRAINT  =         0.0000
 EKCMT  =         0.0000  VIRIAL  =         0.0000  VOLUME     =       319.7173
                                                    Density    =         0.0076
 DV/DL  =         0.4995
 ------------------------------------------------------------------------------

      A V E R A G E S   O V E R   50000 S T E P S

 NSTEP =   100000   TIME(PS) =     220.000  TEMP(K) =   297.36  PRESS =     0.0
 Etot   =    -10409.2572  EKtot   =      2424.2020  EPtot      =    -12833.4593
 BOND   =        18.8357  ANGLE   =        32.4777  DIHED      =        19.3278
 1-4 NB =         7.9601  1-4 EEL =       -70.3679  VDWAALS    =      1893.4850
 EELEC  =    -14735.1776  EHBOND  =         0.0000  RESTRAINT  =         0.0000
 EKCMT  =         0.0000  VIRIAL  =         0.0000  VOLUME     =     41304.5121
                                                    Density    =         0.9879
 DV/DL  =        -1.7689
 ------------------------------------------------------------------------------

      R M S  F L U C T U A T I O N S

 NSTEP =   100000   TIME(PS) =     220.000  TEMP(K) =     4.60  PRESS =     0.0
 Etot   =        68.0620  EKtot   =        37.5381  EPtot      =        55.7791
 BOND   =         3.9016  ANGLE   =         3.2196  DIHED      =         2.7658
 1-4 NB =         0.8841  1-4 EEL =         1.9071  VDWAALS    =        56.9361
 EELEC  =        91.1770  EHBOND  =         0.0000  RESTRAINT  =         0.0000
 EKCMT  =         0.0000  VIRIAL  =         0.0000  VOLUME     =       319.7173
                                                    Density    =         0.0076
 DV/DL  =         0.4995
 ------------------------------------------------------------------------------

      DV/DL, AVERAGES OVER   50000 STEPS

 NSTEP =   100000   TIME(PS) =     220.000  TEMP(K) =     4.60  PRESS =     0.0
 Etot   =         0.0000  EKtot   =         0.0000  EPtot      =        -1.7513
 BOND   =         0.0000  ANGLE   =         0.0000  DIHED      =         0.0000
 1-4 NB =         0.0000  1-4 EEL =         0.0000  VDWAALS    =         0.0000
 EELEC  =        -0.2296  EHBOND  =         0.0000  RESTRAINT  =         0.0000
 EKCMT  =         0.0000  VIRIAL  =         0.0000  VOLUME     =         0.0000
                                                    Density    =         0.0000
 DV/DL  =        -1.7513
 ------------------------------------------------------------------------------

      A V E R A G E S   O V E R   50000 S T E P S

 NSTEP =   500000   TIME(PS) =    1020.000  TEMP(K) =   297.37  PRESS =     0.0
 Etot   =    -10417.8647  EKtot   =      2424.3142  EPtot      =    -12842.1789
 BOND   =        18.5227  ANGLE   =        32.4579  DIHED      =        19.2894
 1-4 NB =         7.8979  1-4 EEL =       -72.6443  VDWAALS    =      1896.8382
 EELEC  =    -14744.5408  EHBOND  =         0.0000  RESTRAINT  =         0.0000
 EKCMT  =         0.0000  VIRIAL  =         0.0000  VOLUME     =     41277.6531
                                                    Density    =         0.9885
 DV/DL  =        -1.7335
 ------------------------------------------------------------------------------

      R M S  F L U C T U A T I O N S

 NSTEP =   500000   TIME(PS) =    1020.000  TEMP(K) =     4.69  PRESS =     0.0
 Etot   =        70.7839  EKtot   =        38.2277  EPtot      =        58.1297
 BOND   =         3.9266  ANGLE   =         3.2903  DIHED      =         2.8410
 1-4 NB =         0.8685  1-4 EEL =         2.7097  VDWAALS    =        57.0540
 EELEC  =        92.2770  EHBOND  =         0.0000  RESTRAINT  =         0.0000
 EKCMT  =         0.0000  VIRIAL  =         0.0000  VOLUME     =       365.7006
                                                    Density    =         0.0087
 DV/DL  =         0.4902
 ------------------------------------------------------------------------------

      A V E R A G E S   O V E R   50000 S T E P S

 NSTEP =   500000   TIME(PS) =    1020.000  TEMP(K) =   297.37  PRESS =     0.0
 Etot   =    -10417.8647  EKtot   =      2424.3142  EPtot      =    -12842.1789
 BOND   =        18.5227  ANGLE   =        32.4579  DIHED      =        19.2894
 1-4 NB =         7.8979  1-4 EEL =       -72.6443  VDWAALS    =      1896.8382
 EELEC  =    -14744.5408  EHBOND  =         0.0000  RESTRAINT  =         0.0000
 EKCMT  =         0.0000  VIRIAL  =         0.0000  VOLUME     =     41277.6531
                                                    Density    =         0.9885
 DV/DL  =        -1.7335
 ------------------------------------------------------------------------------

      R M S  F L U C T U A T I O N S

 NSTEP =   500000   TIME(PS) =    1020.000  TEMP(K) =     4.69  PRESS =     0.0
 Etot   =        70.7839  EKtot   =        38.2277  EPtot      =        58.1297
 BOND   =         3.9266  ANGLE   =         3.2903  DIHED      =         2.8410
 1-4 NB =         0.8685  1-4 EEL =         2.7097  VDWAALS    =        57.0540
 EELEC  =        92.2770  EHBOND  =         0.0000  RESTRAINT  =         0.0000
 EKCMT  =         0.0000  VIRIAL  =         0.0000  VOLUME     =       365.7006
                                                    Density    =         0.0087
 DV/DL  =         0.4902
 ------------------------------------------------------------------------------

      DV/DL, AVERAGES OVER   50000 STEPS

 NSTEP =   500000   TIME(PS) =    1020.000  TEMP(K) =     4.69  PRESS =     0.0
 Etot   =         0.0000  EKtot   =         0.0000  EPtot      =        -1.7162
 BOND   =         0.0000  ANGLE   =         0.0000  DIHED      =         0.0000
 1-4 NB =         0.0000  1-4 EEL =         0.0000  VDWAALS    =         0.0000
 EELEC  =        -0.2295  EHBOND  =         0.0000  RESTRAINT  =         0.0000
 EKCMT  =         0.0000  VIRIAL  =         0.0000  VOLUME     =         0.0000
                                                    Density    =         0.0000
 DV/DL  =        -1.7162
 ------------------------------------------------------------------------------

      A V E R A G E S   O V E R  500000 S T E P S

 NSTEP =   500000   TIME(PS) =    1020.000  TEMP(K) =   297.45  PRESS =     0.0
 Etot   =    -10416.7117  EKtot   =      2424.9740  EPtot      =    -12841.6857
 BOND   =        18.4773  ANGLE   =        32.5622  DIHED      =        19.2885
 1-4 NB =         7.9502  1-4 EEL =       -71.1753  VDWAALS    =      1898.7271
 EELEC  =    -14747.5157  EHBOND  =         0.0000  RESTRAINT  =         0.0000
 EKCMT  =         0.0000  VIRIAL  =         0.0000  VOLUME     =     41249.4790
                                                    Density    =         0.9892
 DV/DL  =        -1.7167
 ------------------------------------------------------------------------------

      R M S  F L U C T U A T I O N S

 NSTEP =   500000   TIME(PS) =    1020.000  TEMP(K) =     5.58  PRESS =     0.0
 Etot   =       110.7053  EKtot   =        45.4716  EPtot      =        84.2209
 BOND   =         3.8148  ANGLE   =         3.2770  DIHED      =         2.8012
 1-4 NB =         0.8843  1-4 EEL =         2.5458  VDWAALS    =        62.9358
 EELEC  =       127.0435  EHBOND  =         0.0000  RESTRAINT  =         0.0000
 EKCMT  =         0.0000  VIRIAL  =         0.0000  VOLUME     =       322.9719
                                                    Density    =         0.0077
 DV/DL  =         0.4971
 ------------------------------------------------------------------------------

      A V E R A G E S   O V E R  500000 S T E P S

 NSTEP =   500000   TIME(PS) =    1020.000  TEMP(K) =   297.45  PRESS =     0.0
 Etot   =    -10416.7117  EKtot   =      2424.9740  EPtot      =    -12841.6857
 BOND   =        18.4773  ANGLE   =        32.5622  DIHED      =        19.2885
 1-4 NB =         7.9502  1-4 EEL =       -71.1753  VDWAALS    =      1898.7271
 EELEC  =    -14747.5157  EHBOND  =         0.0000  RESTRAINT  =         0.0000
 EKCMT  =         0.0000  VIRIAL  =         0.0000  VOLUME     =     41249.4790
                                                    Density    =         0.9892
 DV/DL  =        -1.7167
 ------------------------------------------------------------------------------

      R M S  F L U C T U A T I O N S

 NSTEP =   500000   TIME(PS) =    1020.000  TEMP(K) =     5.58  PRESS =     0.0
 Etot   =       110.7053  EKtot   =        45.4716  EPtot      =        84.2209
 BOND   =         3.8148  ANGLE   =         3.2770  DIHED      =         2.8012
 1-4 NB =         0.8843  1-4 EEL =         2.5458  VDWAALS    =        62.9358
 EELEC  =       127.0435  EHBOND  =         0.0000  RESTRAINT  =         0.0000
 EKCMT  =         0.0000  VIRIAL  =         0.0000  VOLUME     =       322.9719
                                                    Density    =         0.0077
 DV/DL  =         0.4971
 ------------------------------------------------------------------------------

      DV/DL, AVERAGES OVER  500000 STEPS

 NSTEP =   500000   TIME(PS) =    1020.000  TEMP(K) =     5.58  PRESS =     0.0
 Etot   =         0.0000  EKtot   =         0.0000  EPtot      =        -1.6995
 BOND   =         0.0000  ANGLE   =         0.0000  DIHED      =         0.0000
 1-4 NB =         0.0000  1-4 EEL =         0.0000  VDWAALS    =         0.0000
 EELEC  =        -0.2295  EHBOND  =         0.0000  RESTRAINT  =         0.0000
 EKCMT  =         0.0000  VIRIAL  =         0.0000  VOLUME     =         0.0000
                                                    Density    =         0.0000
 DV/DL  =        -1.6995
 ------------------------------------------------------------------------------
