-------------------------------------------------------
          Amber 16 PMEMD                              2016
          -------------------------------------------------------

  [-O]verwriting output

File Assignments:

 Here is the input file:

TI/FEP, NpT, vdW+bonded transformation
 &cntrl
 ! please adjust namelist parameters to your needs!

 ! parameters for general MD
 imin = 0, nstlim = 500000, irest = 1, ntx = 5, dt = 0.002,
 ntt = 3, temp0 = 298.0, gamma_ln = 2.0, ig = -1,
 ntb = 2,
 ntp = 1, barostat = 2, pres0 = 1.01325, taup = 2.0,
 ntwe = 100, ntwx = 10000, ntpr = 1000, ntwr = 50000, ntave = 50000,
 ioutfm = 1, iwrap = 1, ntxo = 2,

 ! parameters for alchemical free energy simulation
 ntc = 2, ntf = 1,
 noshakemask = ':1,2',

 icfe = 1, ifsc = 1, clambda = 0.1150, scalpha = 0.5, scbeta = 12.0,
 ifmbar = 1, mbar_lambda = 0.0 0.0479 0.1150 0.2063 0.3160 0.4373 0.5626 0.6839
 mbar_states = 12, bar_intervall = 1000,   ! ntpr = bar_intervall for alchemica

 timask1=':1', timask2=':2',
scmask1=':1@H34',
scmask2=':2@Cl18',
 crgmask = ':1@H34 | :2@Cl18',
 /
 &ewald
 /

Note: ig = -1. Setting random seed to   842064 based on wallclock time in
      microseconds.

--------------------------------------------------------------------------------
   1.  RESOURCE   USE:
--------------------------------------------------------------------------------

 getting box info from netcdf restart file
 NATOM  =   46594 NTYPES =      28 NBONH =   43475 MBONA  =    3194
 NTHETH =    6827 MTHETA =    4353 NPHIH =   13979 MPHIA  =   13703
 NHPARM =       0 NPARM  =       0 NNB   =   87745 NRES   =   13889
 NBONA  =    3194 NTHETA =    4353 NPHIA =   13703 NUMBND =      89
 NUMANG =     195 NPTRA  =     203 NATYP =      50 NPHB   =       1
 IFBOX  =       1 NMXRS  =      43 IFCAP =       0 NEXTRA =       0
 NCOPY  =       0

     BOX TYPE: RECTILINEAR

--------------------------------------------------------------------------------
   2.  CONTROL  DATA  FOR  THE  RUN
--------------------------------------------------------------------------------

L0

General flags:
     imin    =       0, nmropt  =       0

Nature and format of input:
     ntx     =       5, irest   =       1, ntrx    =       1

Nature and format of output:
     ntxo    =       2, ntpr    =    1000, ntrx    =       1, ntwr    =   50000
     iwrap   =       1, ntwx    =   10000, ntwv    =       0, ntwe    =     100
     ioutfm  =       1, ntwprt  =       0, idecomp =       0, rbornstat=      0

Potential function:
     ntf     =       1, ntb     =       2, igb     =       0, nsnb    =      25
     ipol    =       0, gbsa    =       0, iesp    =       0
     dielc   =   1.00000, cut     =   8.00000, intdiel =   1.00000

Frozen or restrained atoms:
     ibelly  =       0, ntr     =       0

Molecular dynamics:
     nstlim  =    500000, nscm    =      1000, nrespa  =         1
     t       =   0.00000, dt      =   0.00200, vlimit  =  -1.00000

Langevin dynamics temperature regulation:
     ig      =  842064
     temp0   = 298.00000, tempi   =   0.00000, gamma_ln=   2.00000

Pressure regulation:
     ntp     =       1
     pres0   =   1.01325, comp    =  44.60000, taup    =   2.00000
     Monte-Carlo Barostat:
     mcbarint  =     100

SHAKE:
     ntc     =       2, jfastw  =       0
     tol     =   0.00001

Free energy options:
     icfe    =       1, ifsc    =       1, klambda =       1
     clambda =  0.1150, scalpha =  0.5000, scbeta  = 12.0000
     sceeorder =       2
     dynlmb =  0.0000 logdvdl =       0

FEP MBAR options:
     ifmbar  =       1,  bar_intervall =     1000
     mbar_states =      12

Ewald parameters:
     verbose =       0, ew_type =       0, nbflag  =       1, use_pme =       1
     vdwmeth =       1, eedmeth =       1, netfrc  =       1
     Box X =   87.894   Box Y =   67.207   Box Z =   78.608
     Alpha =   90.000   Beta  =   90.000   Gamma =   90.000
     NFFT1 =   96       NFFT2 =   64       NFFT3 =   80
     Cutoff=    8.000   Tol   =0.100E-04
     Ewald Coefficient =  0.34864
     Interpolation order =    4
     TI Mask 1 :1; matches     43 atoms
     TI Mask 2 :2; matches     43 atoms
     TI region 1:   46551 atoms
     TI region 2:   46551 atoms
     SC Mask 1 :1@H34; matches      1 atoms
     SC Mask 2 :2@Cl18; matches      1 atoms
Removing charge of       0.1510 from atom      43
Removing charge of      -0.0609 from atom      86
Total charge of   0.09010100 removed from       2 atoms

    MBAR - lambda values considered:
      12 total:  0.0000 0.0479 0.1150 0.2063 0.3160 0.4373 0.5626 0.6839 0.7936 0.8849 0.9520 1.0000
    Extra energies will be computed    500 times.
 Noshake mask :1,2; matches      86 atoms.

--------------------------------------------------------------------------------
   3.  ATOMIC COORDINATES AND VELOCITIES
--------------------------------------------------------------------------------

L0
 begin time read from input coords =    20.000 ps

     Molecule     1 is partially softcore
     Molecule     2 is partially softcore
 Number of triangulated 3-point waters found:    13488
   Removing shake constraints from C22   L0    1 -- H41   L0    1
   Removing shake constraints from C22   L0    1 -- H42   L0    1
   Removing shake constraints from C21   L0    1 -- H39   L0    1
   Removing shake constraints from C21   L0    1 -- H40   L0    1
   Removing shake constraints from C20   L0    1 -- H38   L0    1
   Removing shake constraints from C19   L0    1 -- H37   L0    1
   Removing shake constraints from C18   L0    1 -- H36   L0    1
   Removing shake constraints from C15   L0    1 -- H35   L0    1
   Removing shake constraints from C14   L0    1 -- H34   L0    1
   Removing shake constraints from C13   L0    1 -- H33   L0    1
   Removing shake constraints from C10   L0    1 -- H32   L0    1
   Removing shake constraints from C9    L0    1 -- H31   L0    1
   Removing shake constraints from C8    L0    1 -- H30   L0    1
   Removing shake constraints from N5    L0    1 -- H29   L0    1
   Removing shake constraints from N4    L0    1 -- H43   L0    1
   Removing shake constraints from N4    L0    1 -- H28   L0    1
   Removing shake constraints from C1    L0    1 -- H25   L0    1
   Removing shake constraints from C1    L0    1 -- H26   L0    1
   Removing shake constraints from C1    L0    1 -- H27   L0    1
   Removing shake constraints from C23   L1    2 -- H41   L1    2
   Removing shake constraints from C23   L1    2 -- H42   L1    2
   Removing shake constraints from C22   L1    2 -- H39   L1    2
   Removing shake constraints from C22   L1    2 -- H40   L1    2
   Removing shake constraints from C21   L1    2 -- H38   L1    2
   Removing shake constraints from C20   L1    2 -- H37   L1    2
   Removing shake constraints from C13   L1    2 -- H34   L1    2
   Removing shake constraints from C16   L1    2 -- H35   L1    2
   Removing shake constraints from C19   L1    2 -- H36   L1    2
   Removing shake constraints from C10   L1    2 -- H33   L1    2
   Removing shake constraints from C9    L1    2 -- H32   L1    2
   Removing shake constraints from C8    L1    2 -- H31   L1    2
   Removing shake constraints from N5    L1    2 -- H30   L1    2
   Removing shake constraints from N4    L1    2 -- H43   L1    2
   Removing shake constraints from N4    L1    2 -- H29   L1    2
   Removing shake constraints from C1    L1    2 -- H26   L1    2
   Removing shake constraints from C1    L1    2 -- H27   L1    2
   Removing shake constraints from C1    L1    2 -- H28   L1    2
 WARNING: SHAKEn bond for atoms       14       43 is partially softcore.
 Coordinates for common atoms will be synchronized from V0.
 Consider using noshake mask or disabling SHAKE.

 Number of shake restraints removed in TI region  1 :       19
 Number of shake restraints removed in TI region  2 :       18

     Sum of charges for TI region  1 =  -0.15102723
     Assuming uniform neutralizing plasma

     Sum of charges for TI region  2 =   0.06096676
     Assuming uniform neutralizing plasma

--------------------------------------------------------------------------------
   4.  RESULTS
 NSTEP =     1000   TIME(PS) =      22.000  TEMP(K) =   284.92  PRESS =     0.0
 Etot   =   -116979.5978  EKtot   =     27233.3203  EPtot      =   -144212.9181
 BOND   =      1150.1524  ANGLE   =      2969.8720  DIHED      =      4862.0147
 1-4 NB =      1424.3619  1-4 EEL =     16093.5950  VDWAALS    =     17587.3873
 EELEC  =   -188300.3015  EHBOND  =         0.0000  RESTRAINT  =         0.0000
 EKCMT  =         0.0000  VIRIAL  =         0.0000  VOLUME     =    465704.3893
                                                    Density    =         1.0231
 DV/DL  =         0.9510
 ------------------------------------------------------------------------------

      A V E R A G E S   O V E R   50000 S T E P S

 NSTEP =    50000   TIME(PS) =     120.000  TEMP(K) =   296.64  PRESS =     0.0
 Etot   =   -111592.1460  EKtot   =     28353.2617  EPtot      =   -139945.4077
 BOND   =      1186.9776  ANGLE   =      3069.3494  DIHED      =      4888.4154
 1-4 NB =      1409.4717  1-4 EEL =     15986.9451  VDWAALS    =     15726.1845
 EELEC  =   -182212.7513  EHBOND  =         0.0000  RESTRAINT  =         0.0000
 EKCMT  =         0.0000  VIRIAL  =         0.0000  VOLUME     =    463307.5213
                                                    Density    =         1.0284
 DV/DL  =         1.2630
 ------------------------------------------------------------------------------

      R M S  F L U C T U A T I O N S

 NSTEP =    50000   TIME(PS) =     120.000  TEMP(K) =    10.45  PRESS =     0.0
 Etot   =      3113.3230  EKtot   =       998.4330  EPtot      =      2134.7814
 BOND   =        48.6314  ANGLE   =        98.5968  DIHED      =        33.9349
 1-4 NB =        16.2355  1-4 EEL =        42.1850  VDWAALS    =       861.5085
 EELEC  =      2834.1468  EHBOND  =         0.0000  RESTRAINT  =         0.0000
 EKCMT  =         0.0000  VIRIAL  =         0.0000  VOLUME     =       989.5157
                                                    Density    =         0.0022
 DV/DL  =         2.0868
 ------------------------------------------------------------------------------

      A V E R A G E S   O V E R   50000 S T E P S

 NSTEP =    50000   TIME(PS) =     120.000  TEMP(K) =   296.64  PRESS =     0.0
 Etot   =   -111592.1211  EKtot   =     28353.2866  EPtot      =   -139945.4077
 BOND   =      1186.9776  ANGLE   =      3069.3494  DIHED      =      4888.4154
 1-4 NB =      1409.4717  1-4 EEL =     15986.9451  VDWAALS    =     15726.1845
 EELEC  =   -182212.7513  EHBOND  =         0.0000  RESTRAINT  =         0.0000
 EKCMT  =         0.0000  VIRIAL  =         0.0000  VOLUME     =    463307.5213
                                                    Density    =         1.0285
 DV/DL  =         1.2630
 ------------------------------------------------------------------------------

      R M S  F L U C T U A T I O N S

 NSTEP =    50000   TIME(PS) =     120.000  TEMP(K) =    10.45  PRESS =     0.0
 Etot   =      3113.3048  EKtot   =       998.4150  EPtot      =      2134.7814
 BOND   =        48.6314  ANGLE   =        98.5968  DIHED      =        33.9349
 1-4 NB =        16.2355  1-4 EEL =        42.1850  VDWAALS    =       861.5085
 EELEC  =      2834.1468  EHBOND  =         0.0000  RESTRAINT  =         0.0000
 EKCMT  =         0.0000  VIRIAL  =         0.0000  VOLUME     =       989.5157
                                                    Density    =         0.0022
 DV/DL  =         2.0868
 ------------------------------------------------------------------------------

      DV/DL, AVERAGES OVER   50000 STEPS

 NSTEP =    50000   TIME(PS) =     120.000  TEMP(K) =    10.45  PRESS =     0.0
 Etot   =         0.0000  EKtot   =         0.0000  EPtot      =         1.2506
 BOND   =         0.0000  ANGLE   =         0.0000  DIHED      =         0.0000
 1-4 NB =         0.0000  1-4 EEL =         0.0000  VDWAALS    =        -0.2832
 EELEC  =        -0.1933  EHBOND  =         0.0000  RESTRAINT  =         0.0000
 EKCMT  =         0.0000  VIRIAL  =         0.0000  VOLUME     =         0.0000
                                                    Density    =         0.0000
 DV/DL  =         1.2506
 ------------------------------------------------------------------------------

      A V E R A G E S   O V E R   50000 S T E P S

 NSTEP =   100000   TIME(PS) =     220.000  TEMP(K) =   297.97  PRESS =     0.0
 Etot   =   -111229.9330  EKtot   =     28480.1979  EPtot      =   -139710.1308
 BOND   =      1189.0089  ANGLE   =      3064.8565  DIHED      =      4890.7088
 1-4 NB =      1412.0503  1-4 EEL =     15981.6983  VDWAALS    =     15609.3122
 EELEC  =   -181857.7658  EHBOND  =         0.0000  RESTRAINT  =         0.0000
 EKCMT  =         0.0000  VIRIAL  =         0.0000  VOLUME     =    462382.1202
                                                    Density    =         1.0304
 DV/DL  =         1.5787
 ------------------------------------------------------------------------------

      R M S  F L U C T U A T I O N S

 NSTEP =   100000   TIME(PS) =     220.000  TEMP(K) =     1.37  PRESS =     0.0
 Etot   =       228.7675  EKtot   =       131.0293  EPtot      =       184.3982
 BOND   =        28.8926  ANGLE   =        42.7821  DIHED      =        23.1381
 1-4 NB =        15.5720  1-4 EEL =        41.8409  VDWAALS    =       183.5135
 EELEC  =       294.5754  EHBOND  =         0.0000  RESTRAINT  =         0.0000
 EKCMT  =         0.0000  VIRIAL  =         0.0000  VOLUME     =       780.6374
                                                    Density    =         0.0017
 DV/DL  =         2.0413
 ------------------------------------------------------------------------------

      A V E R A G E S   O V E R   50000 S T E P S

 NSTEP =   100000   TIME(PS) =     220.000  TEMP(K) =   297.97  PRESS =     0.0
 Etot   =   -111229.9208  EKtot   =     28480.2101  EPtot      =   -139710.1308
 BOND   =      1189.0089  ANGLE   =      3064.8565  DIHED      =      4890.7088
 1-4 NB =      1412.0503  1-4 EEL =     15981.6983  VDWAALS    =     15609.3122
 EELEC  =   -181857.7658  EHBOND  =         0.0000  RESTRAINT  =         0.0000
 EKCMT  =         0.0000  VIRIAL  =         0.0000  VOLUME     =    462382.1202
                                                    Density    =         1.0305
 DV/DL  =         1.5787
 ------------------------------------------------------------------------------

      R M S  F L U C T U A T I O N S

 NSTEP =   100000   TIME(PS) =     220.000  TEMP(K) =     1.37  PRESS =     0.0
 Etot   =       228.7717  EKtot   =       131.0472  EPtot      =       184.3982
 BOND   =        28.8926  ANGLE   =        42.7821  DIHED      =        23.1381
 1-4 NB =        15.5720  1-4 EEL =        41.8409  VDWAALS    =       183.5135
 EELEC  =       294.5754  EHBOND  =         0.0000  RESTRAINT  =         0.0000
 EKCMT  =         0.0000  VIRIAL  =         0.0000  VOLUME     =       780.6374
                                                    Density    =         0.0017
 DV/DL  =         2.0413
 ------------------------------------------------------------------------------

      DV/DL, AVERAGES OVER   50000 STEPS

 NSTEP =   100000   TIME(PS) =     220.000  TEMP(K) =     1.37  PRESS =     0.0
 Etot   =         0.0000  EKtot   =         0.0000  EPtot      =         1.5631
 BOND   =         0.0000  ANGLE   =         0.0000  DIHED      =         0.0000
 1-4 NB =         0.0000  1-4 EEL =         0.0000  VDWAALS    =        -0.2838
 EELEC  =        -0.1933  EHBOND  =         0.0000  RESTRAINT  =         0.0000
 EKCMT  =         0.0000  VIRIAL  =         0.0000  VOLUME     =         0.0000
                                                    Density    =         0.0000
 DV/DL  =         1.5631
 ------------------------------------------------------------------------------

      A V E R A G E S   O V E R   50000 S T E P S

 NSTEP =   500000   TIME(PS) =    1020.000  TEMP(K) =   298.04  PRESS =     0.0
 Etot   =   -111220.4160  EKtot   =     28487.3276  EPtot      =   -139707.7436
 BOND   =      1187.4787  ANGLE   =      3072.0990  DIHED      =      4885.5234
 1-4 NB =      1408.3120  1-4 EEL =     15990.9282  VDWAALS    =     15576.0683
 EELEC  =   -181828.1531  EHBOND  =         0.0000  RESTRAINT  =         0.0000
 EKCMT  =         0.0000  VIRIAL  =         0.0000  VOLUME     =    462741.4643
                                                    Density    =         1.0296
 DV/DL  =         2.1546
 ------------------------------------------------------------------------------

      R M S  F L U C T U A T I O N S

 NSTEP =   500000   TIME(PS) =    1020.000  TEMP(K) =     1.37  PRESS =     0.0
 Etot   =       240.5836  EKtot   =       130.7442  EPtot      =       196.7774
 BOND   =        28.8389  ANGLE   =        41.2972  DIHED      =        24.3815
 1-4 NB =        15.2218  1-4 EEL =        42.8027  VDWAALS    =       190.1313
 EELEC  =       308.6676  EHBOND  =         0.0000  RESTRAINT  =         0.0000
 EKCMT  =         0.0000  VIRIAL  =         0.0000  VOLUME     =      1215.6744
                                                    Density    =         0.0027
 DV/DL  =         2.1829
 ------------------------------------------------------------------------------

      A V E R A G E S   O V E R   50000 S T E P S

 NSTEP =   500000   TIME(PS) =    1020.000  TEMP(K) =   298.04  PRESS =     0.0
 Etot   =   -111220.3981  EKtot   =     28487.3456  EPtot      =   -139707.7436
 BOND   =      1187.4787  ANGLE   =      3072.0990  DIHED      =      4885.5234
 1-4 NB =      1408.3120  1-4 EEL =     15990.9282  VDWAALS    =     15576.0683
 EELEC  =   -181828.1531  EHBOND  =         0.0000  RESTRAINT  =         0.0000
 EKCMT  =         0.0000  VIRIAL  =         0.0000  VOLUME     =    462741.4643
                                                    Density    =         1.0298
 DV/DL  =         2.1546
 ------------------------------------------------------------------------------

      R M S  F L U C T U A T I O N S

 NSTEP =   500000   TIME(PS) =    1020.000  TEMP(K) =     1.37  PRESS =     0.0
 Etot   =       240.5320  EKtot   =       130.7380  EPtot      =       196.7774
 BOND   =        28.8389  ANGLE   =        41.2972  DIHED      =        24.3815
 1-4 NB =        15.2218  1-4 EEL =        42.8027  VDWAALS    =       190.1313
 EELEC  =       308.6676  EHBOND  =         0.0000  RESTRAINT  =         0.0000
 EKCMT  =         0.0000  VIRIAL  =         0.0000  VOLUME     =      1215.6744
                                                    Density    =         0.0027
 DV/DL  =         2.1829
 ------------------------------------------------------------------------------

      DV/DL, AVERAGES OVER   50000 STEPS

 NSTEP =   500000   TIME(PS) =    1020.000  TEMP(K) =     1.37  PRESS =     0.0
 Etot   =         0.0000  EKtot   =         0.0000  EPtot      =         2.1333
 BOND   =         0.0000  ANGLE   =         0.0000  DIHED      =         0.0000
 1-4 NB =         0.0000  1-4 EEL =         0.0000  VDWAALS    =        -0.2836
 EELEC  =        -0.1933  EHBOND  =         0.0000  RESTRAINT  =         0.0000
 EKCMT  =         0.0000  VIRIAL  =         0.0000  VOLUME     =         0.0000
                                                    Density    =         0.0000
 DV/DL  =         2.1333
 ------------------------------------------------------------------------------

      A V E R A G E S   O V E R  500000 S T E P S

 NSTEP =   500000   TIME(PS) =    1020.000  TEMP(K) =   297.91  PRESS =     0.0
 Etot   =   -111251.0577  EKtot   =     28474.5150  EPtot      =   -139725.5728
 BOND   =      1188.5401  ANGLE   =      3067.0375  DIHED      =      4888.8532
 1-4 NB =      1409.4952  1-4 EEL =     15991.4840  VDWAALS    =     15613.1790
 EELEC  =   -181884.1618  EHBOND  =         0.0000  RESTRAINT  =         0.0000
 EKCMT  =         0.0000  VIRIAL  =         0.0000  VOLUME     =    462661.1338
                                                    Density    =         1.0298
 DV/DL  =         1.4988
 ------------------------------------------------------------------------------

      R M S  F L U C T U A T I O N S

 NSTEP =   500000   TIME(PS) =    1020.000  TEMP(K) =     3.57  PRESS =     0.0
 Etot   =      1014.2409  EKtot   =       341.3285  EPtot      =       701.6575
 BOND   =        31.5214  ANGLE   =        50.9690  DIHED      =        25.1998
 1-4 NB =        15.4704  1-4 EEL =        43.3682  VDWAALS    =       325.8729
 EELEC  =       944.8532  EHBOND  =         0.0000  RESTRAINT  =         0.0000
 EKCMT  =         0.0000  VIRIAL  =         0.0000  VOLUME     =      1059.3199
                                                    Density    =         0.0024
 DV/DL  =         2.0261
 ------------------------------------------------------------------------------

      A V E R A G E S   O V E R  500000 S T E P S

 NSTEP =   500000   TIME(PS) =    1020.000  TEMP(K) =   297.91  PRESS =     0.0
 Etot   =   -111251.0611  EKtot   =     28474.5116  EPtot      =   -139725.5728
 BOND   =      1188.5401  ANGLE   =      3067.0375  DIHED      =      4888.8532
 1-4 NB =      1409.4952  1-4 EEL =     15991.4840  VDWAALS    =     15613.1790
 EELEC  =   -181884.1618  EHBOND  =         0.0000  RESTRAINT  =         0.0000
 EKCMT  =         0.0000  VIRIAL  =         0.0000  VOLUME     =    462661.1338
                                                    Density    =         1.0299
 DV/DL  =         1.4988
 ------------------------------------------------------------------------------

      R M S  F L U C T U A T I O N S

 NSTEP =   500000   TIME(PS) =    1020.000  TEMP(K) =     3.57  PRESS =     0.0
 Etot   =      1014.2336  EKtot   =       341.3221  EPtot      =       701.6575
 BOND   =        31.5214  ANGLE   =        50.9690  DIHED      =        25.1998
 1-4 NB =        15.4704  1-4 EEL =        43.3682  VDWAALS    =       325.8729
 EELEC  =       944.8532  EHBOND  =         0.0000  RESTRAINT  =         0.0000
 EKCMT  =         0.0000  VIRIAL  =         0.0000  VOLUME     =      1059.3199
                                                    Density    =         0.0024
 DV/DL  =         2.0261
 ------------------------------------------------------------------------------

      DV/DL, AVERAGES OVER  500000 STEPS

 NSTEP =   500000   TIME(PS) =    1020.000  TEMP(K) =     3.57  PRESS =     0.0
 Etot   =         0.0000  EKtot   =         0.0000  EPtot      =         1.4842
 BOND   =         0.0000  ANGLE   =         0.0000  DIHED      =         0.0000
 1-4 NB =         0.0000  1-4 EEL =         0.0000  VDWAALS    =        -0.2836
 EELEC  =        -0.1933  EHBOND  =         0.0000  RESTRAINT  =         0.0000
 EKCMT  =         0.0000  VIRIAL  =         0.0000  VOLUME     =         0.0000
                                                    Density    =         0.0000
 DV/DL  =         1.4842
 ------------------------------------------------------------------------------
