-------------------------------------------------------
          Amber 16 PMEMD                              2016
          -------------------------------------------------------

  [-O]verwriting output

File Assignments:

 Here is the input file:

TI/FEP, NpT, vdW+bonded transformation
 &cntrl
 ! please adjust namelist parameters to your needs!

 ! parameters for general MD
 imin = 0, nstlim = 500000, irest = 1, ntx = 5, dt = 0.002,
 ntt = 3, temp0 = 298.0, gamma_ln = 2.0, ig = -1,
 ntb = 2,
 ntp = 1, barostat = 2, pres0 = 1.01325, taup = 2.0,
 ntwe = 100, ntwx = 10000, ntpr = 1000, ntwr = 50000, ntave = 50000,
 ioutfm = 1, iwrap = 1, ntxo = 2,

 ! parameters for alchemical free energy simulation
 ntc = 2, ntf = 1,
 noshakemask = ':1,2',

 icfe = 1, ifsc = 1, clambda = 0.9520, scalpha = 0.5, scbeta = 12.0,
 ifmbar = 1, mbar_lambda = 0.0 0.0479 0.1150 0.2063 0.3160 0.4373 0.5626 0.6839
 mbar_states = 12, bar_intervall = 1000,   ! ntpr = bar_intervall for alchemica

 timask1=':1', timask2=':2',
scmask1=':1@H34',
scmask2=':2@Cl18',
 crgmask = ':1@H34 | :2@Cl18',
 /
 &ewald
 /

Note: ig = -1. Setting random seed to   814015 based on wallclock time in
      microseconds.

--------------------------------------------------------------------------------
   1.  RESOURCE   USE:
--------------------------------------------------------------------------------

 getting box info from netcdf restart file
 NATOM  =   46594 NTYPES =      28 NBONH =   43475 MBONA  =    3194
 NTHETH =    6827 MTHETA =    4353 NPHIH =   13979 MPHIA  =   13703
 NHPARM =       0 NPARM  =       0 NNB   =   87745 NRES   =   13889
 NBONA  =    3194 NTHETA =    4353 NPHIA =   13703 NUMBND =      89
 NUMANG =     195 NPTRA  =     203 NATYP =      50 NPHB   =       1
 IFBOX  =       1 NMXRS  =      43 IFCAP =       0 NEXTRA =       0
 NCOPY  =       0

     BOX TYPE: RECTILINEAR

--------------------------------------------------------------------------------
   2.  CONTROL  DATA  FOR  THE  RUN
--------------------------------------------------------------------------------

L0

General flags:
     imin    =       0, nmropt  =       0

Nature and format of input:
     ntx     =       5, irest   =       1, ntrx    =       1

Nature and format of output:
     ntxo    =       2, ntpr    =    1000, ntrx    =       1, ntwr    =   50000
     iwrap   =       1, ntwx    =   10000, ntwv    =       0, ntwe    =     100
     ioutfm  =       1, ntwprt  =       0, idecomp =       0, rbornstat=      0

Potential function:
     ntf     =       1, ntb     =       2, igb     =       0, nsnb    =      25
     ipol    =       0, gbsa    =       0, iesp    =       0
     dielc   =   1.00000, cut     =   8.00000, intdiel =   1.00000

Frozen or restrained atoms:
     ibelly  =       0, ntr     =       0

Molecular dynamics:
     nstlim  =    500000, nscm    =      1000, nrespa  =         1
     t       =   0.00000, dt      =   0.00200, vlimit  =  -1.00000

Langevin dynamics temperature regulation:
     ig      =  814015
     temp0   = 298.00000, tempi   =   0.00000, gamma_ln=   2.00000

Pressure regulation:
     ntp     =       1
     pres0   =   1.01325, comp    =  44.60000, taup    =   2.00000
     Monte-Carlo Barostat:
     mcbarint  =     100

SHAKE:
     ntc     =       2, jfastw  =       0
     tol     =   0.00001

Free energy options:
     icfe    =       1, ifsc    =       1, klambda =       1
     clambda =  0.9520, scalpha =  0.5000, scbeta  = 12.0000
     sceeorder =       2
     dynlmb =  0.0000 logdvdl =       0

FEP MBAR options:
     ifmbar  =       1,  bar_intervall =     1000
     mbar_states =      12

Ewald parameters:
     verbose =       0, ew_type =       0, nbflag  =       1, use_pme =       1
     vdwmeth =       1, eedmeth =       1, netfrc  =       1
     Box X =   87.894   Box Y =   67.207   Box Z =   78.608
     Alpha =   90.000   Beta  =   90.000   Gamma =   90.000
     NFFT1 =   96       NFFT2 =   64       NFFT3 =   80
     Cutoff=    8.000   Tol   =0.100E-04
     Ewald Coefficient =  0.34864
     Interpolation order =    4
     TI Mask 1 :1; matches     43 atoms
     TI Mask 2 :2; matches     43 atoms
     TI region 1:   46551 atoms
     TI region 2:   46551 atoms
     SC Mask 1 :1@H34; matches      1 atoms
     SC Mask 2 :2@Cl18; matches      1 atoms
Removing charge of       0.1510 from atom      43
Removing charge of      -0.0609 from atom      86
Total charge of   0.09010100 removed from       2 atoms

    MBAR - lambda values considered:
      12 total:  0.0000 0.0479 0.1150 0.2063 0.3160 0.4373 0.5626 0.6839 0.7936 0.8849 0.9520 1.0000
    Extra energies will be computed    500 times.
 Noshake mask :1,2; matches      86 atoms.

--------------------------------------------------------------------------------
   3.  ATOMIC COORDINATES AND VELOCITIES
--------------------------------------------------------------------------------

L0
 begin time read from input coords =    20.000 ps

     Molecule     1 is partially softcore
     Molecule     2 is partially softcore
 Number of triangulated 3-point waters found:    13488
   Removing shake constraints from C22   L0    1 -- H41   L0    1
   Removing shake constraints from C22   L0    1 -- H42   L0    1
   Removing shake constraints from C21   L0    1 -- H39   L0    1
   Removing shake constraints from C21   L0    1 -- H40   L0    1
   Removing shake constraints from C20   L0    1 -- H38   L0    1
   Removing shake constraints from C19   L0    1 -- H37   L0    1
   Removing shake constraints from C18   L0    1 -- H36   L0    1
   Removing shake constraints from C15   L0    1 -- H35   L0    1
   Removing shake constraints from C14   L0    1 -- H34   L0    1
   Removing shake constraints from C13   L0    1 -- H33   L0    1
   Removing shake constraints from C10   L0    1 -- H32   L0    1
   Removing shake constraints from C9    L0    1 -- H31   L0    1
   Removing shake constraints from C8    L0    1 -- H30   L0    1
   Removing shake constraints from N5    L0    1 -- H29   L0    1
   Removing shake constraints from N4    L0    1 -- H43   L0    1
   Removing shake constraints from N4    L0    1 -- H28   L0    1
   Removing shake constraints from C1    L0    1 -- H25   L0    1
   Removing shake constraints from C1    L0    1 -- H26   L0    1
   Removing shake constraints from C1    L0    1 -- H27   L0    1
   Removing shake constraints from C23   L1    2 -- H41   L1    2
   Removing shake constraints from C23   L1    2 -- H42   L1    2
   Removing shake constraints from C22   L1    2 -- H39   L1    2
   Removing shake constraints from C22   L1    2 -- H40   L1    2
   Removing shake constraints from C21   L1    2 -- H38   L1    2
   Removing shake constraints from C20   L1    2 -- H37   L1    2
   Removing shake constraints from C13   L1    2 -- H34   L1    2
   Removing shake constraints from C16   L1    2 -- H35   L1    2
   Removing shake constraints from C19   L1    2 -- H36   L1    2
   Removing shake constraints from C10   L1    2 -- H33   L1    2
   Removing shake constraints from C9    L1    2 -- H32   L1    2
   Removing shake constraints from C8    L1    2 -- H31   L1    2
   Removing shake constraints from N5    L1    2 -- H30   L1    2
   Removing shake constraints from N4    L1    2 -- H43   L1    2
   Removing shake constraints from N4    L1    2 -- H29   L1    2
   Removing shake constraints from C1    L1    2 -- H26   L1    2
   Removing shake constraints from C1    L1    2 -- H27   L1    2
   Removing shake constraints from C1    L1    2 -- H28   L1    2
 WARNING: SHAKEn bond for atoms       14       43 is partially softcore.
 Coordinates for common atoms will be synchronized from V0.
 Consider using noshake mask or disabling SHAKE.

 Number of shake restraints removed in TI region  1 :       19
 Number of shake restraints removed in TI region  2 :       18

     Sum of charges for TI region  1 =  -0.15102723
     Assuming uniform neutralizing plasma

     Sum of charges for TI region  2 =   0.06096676
     Assuming uniform neutralizing plasma

--------------------------------------------------------------------------------
   4.  RESULTS
 NSTEP =     1000   TIME(PS) =      22.000  TEMP(K) =   282.73  PRESS =     0.0
 Etot   =   -117029.9203  EKtot   =     27023.4805  EPtot      =   -144053.4008
 BOND   =      1223.8457  ANGLE   =      3015.6441  DIHED      =      4868.8458
 1-4 NB =      1428.5075  1-4 EEL =     15994.3416  VDWAALS    =     17778.5813
 EELEC  =   -188363.1668  EHBOND  =         0.0000  RESTRAINT  =         0.0000
 EKCMT  =         0.0000  VIRIAL  =         0.0000  VOLUME     =    466035.3473
                                                    Density    =         1.0223
 DV/DL  =         2.3460
 ------------------------------------------------------------------------------

      A V E R A G E S   O V E R   50000 S T E P S

 NSTEP =    50000   TIME(PS) =     120.000  TEMP(K) =   296.72  PRESS =     0.0
 Etot   =   -111592.6453  EKtot   =     28361.0267  EPtot      =   -139953.6719
 BOND   =      1185.8050  ANGLE   =      3064.5339  DIHED      =      4885.5260
 1-4 NB =      1408.2885  1-4 EEL =     15972.5004  VDWAALS    =     15737.0314
 EELEC  =   -182207.3572  EHBOND  =         0.0000  RESTRAINT  =         0.0000
 EKCMT  =         0.0000  VIRIAL  =         0.0000  VOLUME     =    463134.3421
                                                    Density    =         1.0288
 DV/DL  =         0.1307
 ------------------------------------------------------------------------------

      R M S  F L U C T U A T I O N S

 NSTEP =    50000   TIME(PS) =     120.000  TEMP(K) =    10.39  PRESS =     0.0
 Etot   =      3104.9398  EKtot   =       993.3762  EPtot      =      2131.3258
 BOND   =        47.9746  ANGLE   =        98.7664  DIHED      =        33.7044
 1-4 NB =        16.4555  1-4 EEL =        41.9110  VDWAALS    =       893.0126
 EELEC  =      2865.4455  EHBOND  =         0.0000  RESTRAINT  =         0.0000
 EKCMT  =         0.0000  VIRIAL  =         0.0000  VOLUME     =      1355.0473
                                                    Density    =         0.0030
 DV/DL  =         3.3373
 ------------------------------------------------------------------------------

      A V E R A G E S   O V E R   50000 S T E P S

 NSTEP =    50000   TIME(PS) =     120.000  TEMP(K) =   296.72  PRESS =     0.0
 Etot   =   -111592.5902  EKtot   =     28361.0818  EPtot      =   -139953.6719
 BOND   =      1185.8050  ANGLE   =      3064.5339  DIHED      =      4885.5260
 1-4 NB =      1408.2885  1-4 EEL =     15972.5004  VDWAALS    =     15737.0314
 EELEC  =   -182207.3572  EHBOND  =         0.0000  RESTRAINT  =         0.0000
 EKCMT  =         0.0000  VIRIAL  =         0.0000  VOLUME     =    463134.3421
                                                    Density    =         1.0289
 DV/DL  =         0.1307
 ------------------------------------------------------------------------------

      R M S  F L U C T U A T I O N S

 NSTEP =    50000   TIME(PS) =     120.000  TEMP(K) =    10.39  PRESS =     0.0
 Etot   =      3104.9481  EKtot   =       993.3797  EPtot      =      2131.3258
 BOND   =        47.9746  ANGLE   =        98.7664  DIHED      =        33.7044
 1-4 NB =        16.4555  1-4 EEL =        41.9110  VDWAALS    =       893.0126
 EELEC  =      2865.4455  EHBOND  =         0.0000  RESTRAINT  =         0.0000
 EKCMT  =         0.0000  VIRIAL  =         0.0000  VOLUME     =      1355.0473
                                                    Density    =         0.0030
 DV/DL  =         3.3373
 ------------------------------------------------------------------------------

      DV/DL, AVERAGES OVER   50000 STEPS

 NSTEP =    50000   TIME(PS) =     120.000  TEMP(K) =    10.39  PRESS =     0.0
 Etot   =         0.0000  EKtot   =         0.0000  EPtot      =         0.1289
 BOND   =         0.0000  ANGLE   =         0.0000  DIHED      =         0.0000
 1-4 NB =         0.0000  1-4 EEL =         0.0000  VDWAALS    =        -0.2833
 EELEC  =        -0.1933  EHBOND  =         0.0000  RESTRAINT  =         0.0000
 EKCMT  =         0.0000  VIRIAL  =         0.0000  VOLUME     =         0.0000
                                                    Density    =         0.0000
 DV/DL  =         0.1289
 ------------------------------------------------------------------------------

      A V E R A G E S   O V E R   50000 S T E P S

 NSTEP =   100000   TIME(PS) =     220.000  TEMP(K) =   298.00  PRESS =     0.0
 Etot   =   -111233.0957  EKtot   =     28482.8165  EPtot      =   -139715.9123
 BOND   =      1190.8541  ANGLE   =      3069.6829  DIHED      =      4896.9763
 1-4 NB =      1411.3803  1-4 EEL =     15988.6578  VDWAALS    =     15637.8177
 EELEC  =   -181911.2814  EHBOND  =         0.0000  RESTRAINT  =         0.0000
 EKCMT  =         0.0000  VIRIAL  =         0.0000  VOLUME     =    462602.1747
                                                    Density    =         1.0299
 DV/DL  =        -0.1852
 ------------------------------------------------------------------------------

      R M S  F L U C T U A T I O N S

 NSTEP =   100000   TIME(PS) =     220.000  TEMP(K) =     1.42  PRESS =     0.0
 Etot   =       228.2762  EKtot   =       135.6198  EPtot      =       175.9737
 BOND   =        29.0486  ANGLE   =        41.8464  DIHED      =        24.8417
 1-4 NB =        15.3566  1-4 EEL =        42.4425  VDWAALS    =       177.3880
 EELEC  =       269.5413  EHBOND  =         0.0000  RESTRAINT  =         0.0000
 EKCMT  =         0.0000  VIRIAL  =         0.0000  VOLUME     =       899.7435
                                                    Density    =         0.0020
 DV/DL  =         3.1148
 ------------------------------------------------------------------------------

      A V E R A G E S   O V E R   50000 S T E P S

 NSTEP =   100000   TIME(PS) =     220.000  TEMP(K) =   298.00  PRESS =     0.0
 Etot   =   -111233.1004  EKtot   =     28482.8119  EPtot      =   -139715.9123
 BOND   =      1190.8541  ANGLE   =      3069.6829  DIHED      =      4896.9763
 1-4 NB =      1411.3803  1-4 EEL =     15988.6578  VDWAALS    =     15637.8177
 EELEC  =   -181911.2814  EHBOND  =         0.0000  RESTRAINT  =         0.0000
 EKCMT  =         0.0000  VIRIAL  =         0.0000  VOLUME     =    462602.1747
                                                    Density    =         1.0301
 DV/DL  =        -0.1852
 ------------------------------------------------------------------------------

      R M S  F L U C T U A T I O N S

 NSTEP =   100000   TIME(PS) =     220.000  TEMP(K) =     1.42  PRESS =     0.0
 Etot   =       228.2844  EKtot   =       135.6129  EPtot      =       175.9737
 BOND   =        29.0486  ANGLE   =        41.8464  DIHED      =        24.8417
 1-4 NB =        15.3566  1-4 EEL =        42.4425  VDWAALS    =       177.3880
 EELEC  =       269.5413  EHBOND  =         0.0000  RESTRAINT  =         0.0000
 EKCMT  =         0.0000  VIRIAL  =         0.0000  VOLUME     =       899.7435
                                                    Density    =         0.0020
 DV/DL  =         3.1148
 ------------------------------------------------------------------------------

      DV/DL, AVERAGES OVER   50000 STEPS

 NSTEP =   100000   TIME(PS) =     220.000  TEMP(K) =     1.42  PRESS =     0.0
 Etot   =         0.0000  EKtot   =         0.0000  EPtot      =        -0.1819
 BOND   =         0.0000  ANGLE   =         0.0000  DIHED      =         0.0000
 1-4 NB =         0.0000  1-4 EEL =         0.0000  VDWAALS    =        -0.2837
 EELEC  =        -0.1933  EHBOND  =         0.0000  RESTRAINT  =         0.0000
 EKCMT  =         0.0000  VIRIAL  =         0.0000  VOLUME     =         0.0000
                                                    Density    =         0.0000
 DV/DL  =        -0.1819
 ------------------------------------------------------------------------------

      A V E R A G E S   O V E R   50000 S T E P S

 NSTEP =   500000   TIME(PS) =    1020.000  TEMP(K) =   297.89  PRESS =     0.0
 Etot   =   -111246.0604  EKtot   =     28472.2050  EPtot      =   -139718.2655
 BOND   =      1188.8879  ANGLE   =      3071.8492  DIHED      =      4871.5579
 1-4 NB =      1410.0062  1-4 EEL =     15959.8754  VDWAALS    =     15621.5863
 EELEC  =   -181842.0283  EHBOND  =         0.0000  RESTRAINT  =         0.0000
 EKCMT  =         0.0000  VIRIAL  =         0.0000  VOLUME     =    462824.6870
                                                    Density    =         1.0294
 DV/DL  =        -0.5464
 ------------------------------------------------------------------------------

      R M S  F L U C T U A T I O N S

 NSTEP =   500000   TIME(PS) =    1020.000  TEMP(K) =     1.30  PRESS =     0.0
 Etot   =       212.4718  EKtot   =       124.6209  EPtot      =       181.0899
 BOND   =        29.0032  ANGLE   =        41.5706  DIHED      =        23.6955
 1-4 NB =        15.3364  1-4 EEL =        42.0390  VDWAALS    =       184.6278
 EELEC  =       290.5925  EHBOND  =         0.0000  RESTRAINT  =         0.0000
 EKCMT  =         0.0000  VIRIAL  =         0.0000  VOLUME     =      1000.1898
                                                    Density    =         0.0022
 DV/DL  =         3.1618
 ------------------------------------------------------------------------------

      A V E R A G E S   O V E R   50000 S T E P S

 NSTEP =   500000   TIME(PS) =    1020.000  TEMP(K) =   297.89  PRESS =     0.0
 Etot   =   -111245.9974  EKtot   =     28472.2681  EPtot      =   -139718.2655
 BOND   =      1188.8879  ANGLE   =      3071.8492  DIHED      =      4871.5579
 1-4 NB =      1410.0062  1-4 EEL =     15959.8754  VDWAALS    =     15621.5863
 EELEC  =   -181842.0283  EHBOND  =         0.0000  RESTRAINT  =         0.0000
 EKCMT  =         0.0000  VIRIAL  =         0.0000  VOLUME     =    462824.6870
                                                    Density    =         1.0296
 DV/DL  =        -0.5464
 ------------------------------------------------------------------------------

      R M S  F L U C T U A T I O N S

 NSTEP =   500000   TIME(PS) =    1020.000  TEMP(K) =     1.30  PRESS =     0.0
 Etot   =       212.4746  EKtot   =       124.6097  EPtot      =       181.0899
 BOND   =        29.0032  ANGLE   =        41.5706  DIHED      =        23.6955
 1-4 NB =        15.3364  1-4 EEL =        42.0390  VDWAALS    =       184.6278
 EELEC  =       290.5925  EHBOND  =         0.0000  RESTRAINT  =         0.0000
 EKCMT  =         0.0000  VIRIAL  =         0.0000  VOLUME     =      1000.1898
                                                    Density    =         0.0022
 DV/DL  =         3.1618
 ------------------------------------------------------------------------------

      DV/DL, AVERAGES OVER   50000 STEPS

 NSTEP =   500000   TIME(PS) =    1020.000  TEMP(K) =     1.30  PRESS =     0.0
 Etot   =         0.0000  EKtot   =         0.0000  EPtot      =        -0.5411
 BOND   =         0.0000  ANGLE   =         0.0000  DIHED      =         0.0000
 1-4 NB =         0.0000  1-4 EEL =         0.0000  VDWAALS    =        -0.2835
 EELEC  =        -0.1933  EHBOND  =         0.0000  RESTRAINT  =         0.0000
 EKCMT  =         0.0000  VIRIAL  =         0.0000  VOLUME     =         0.0000
                                                    Density    =         0.0000
 DV/DL  =        -0.5411
 ------------------------------------------------------------------------------

      A V E R A G E S   O V E R  500000 S T E P S

 NSTEP =   500000   TIME(PS) =    1020.000  TEMP(K) =   297.87  PRESS =     0.0
 Etot   =   -111257.7758  EKtot   =     28470.6597  EPtot      =   -139728.4355
 BOND   =      1188.2442  ANGLE   =      3067.7148  DIHED      =      4884.2551
 1-4 NB =      1411.1325  1-4 EEL =     15990.5570  VDWAALS    =     15627.2552
 EELEC  =   -181897.5944  EHBOND  =         0.0000  RESTRAINT  =         0.0000
 EKCMT  =         0.0000  VIRIAL  =         0.0000  VOLUME     =    462712.3666
                                                    Density    =         1.0297
 DV/DL  =        -0.3371
 ------------------------------------------------------------------------------

      R M S  F L U C T U A T I O N S

 NSTEP =   500000   TIME(PS) =    1020.000  TEMP(K) =     3.56  PRESS =     0.0
 Etot   =      1012.4183  EKtot   =       340.0139  EPtot      =       700.8142
 BOND   =        31.5053  ANGLE   =        50.9040  DIHED      =        26.1834
 1-4 NB =        15.3878  1-4 EEL =        47.4531  VDWAALS    =       334.2222
 EELEC  =       952.6855  EHBOND  =         0.0000  RESTRAINT  =         0.0000
 EKCMT  =         0.0000  VIRIAL  =         0.0000  VOLUME     =       999.3490
                                                    Density    =         0.0022
 DV/DL  =         3.1365
 ------------------------------------------------------------------------------

      A V E R A G E S   O V E R  500000 S T E P S

 NSTEP =   500000   TIME(PS) =    1020.000  TEMP(K) =   297.87  PRESS =     0.0
 Etot   =   -111257.7710  EKtot   =     28470.6646  EPtot      =   -139728.4355
 BOND   =      1188.2442  ANGLE   =      3067.7148  DIHED      =      4884.2551
 1-4 NB =      1411.1325  1-4 EEL =     15990.5570  VDWAALS    =     15627.2552
 EELEC  =   -181897.5944  EHBOND  =         0.0000  RESTRAINT  =         0.0000
 EKCMT  =         0.0000  VIRIAL  =         0.0000  VOLUME     =    462712.3666
                                                    Density    =         1.0298
 DV/DL  =        -0.3371
 ------------------------------------------------------------------------------

      R M S  F L U C T U A T I O N S

 NSTEP =   500000   TIME(PS) =    1020.000  TEMP(K) =     3.56  PRESS =     0.0
 Etot   =      1012.4202  EKtot   =       340.0124  EPtot      =       700.8142
 BOND   =        31.5053  ANGLE   =        50.9040  DIHED      =        26.1834
 1-4 NB =        15.3878  1-4 EEL =        47.4531  VDWAALS    =       334.2222
 EELEC  =       952.6855  EHBOND  =         0.0000  RESTRAINT  =         0.0000
 EKCMT  =         0.0000  VIRIAL  =         0.0000  VOLUME     =       999.3490
                                                    Density    =         0.0022
 DV/DL  =         3.1365
 ------------------------------------------------------------------------------

      DV/DL, AVERAGES OVER  500000 STEPS

 NSTEP =   500000   TIME(PS) =    1020.000  TEMP(K) =     3.56  PRESS =     0.0
 Etot   =         0.0000  EKtot   =         0.0000  EPtot      =        -0.3335
 BOND   =         0.0000  ANGLE   =         0.0000  DIHED      =         0.0000
 1-4 NB =         0.0000  1-4 EEL =         0.0000  VDWAALS    =        -0.2836
 EELEC  =        -0.1933  EHBOND  =         0.0000  RESTRAINT  =         0.0000
 EKCMT  =         0.0000  VIRIAL  =         0.0000  VOLUME     =         0.0000
                                                    Density    =         0.0000
 DV/DL  =        -0.3335
 ------------------------------------------------------------------------------
