-------------------------------------------------------
          Amber 16 PMEMD                              2016
          -------------------------------------------------------

  [-O]verwriting output

File Assignments:

 Here is the input file:

TI/FEP, NpT, vdW+bonded transformation
 &cntrl
 ! please adjust namelist parameters to your needs!

 ! parameters for general MD
 imin = 0, nstlim = 500000, irest = 1, ntx = 5, dt = 0.002,
 ntt = 3, temp0 = 298.0, gamma_ln = 2.0, ig = -1,
 ntb = 2,
 ntp = 1, barostat = 2, pres0 = 1.01325, taup = 2.0,
 ntwe = 1000, ntwx = 10000, ntpr = 1000, ntwr = 50000, ntave = 50000,
 ioutfm = 1, iwrap = 1, ntxo = 2,

 ! parameters for alchemical free energy simulation
 ntc = 2, ntf = 1,
 noshakemask = ':1,2',

 icfe = 1, ifsc = 1, clambda = 0.20634, scalpha = 0.5, scbeta = 12.0,
 ifmbar = 0, bar_intervall = 500, bar_l_min = 0.0, bar_l_max = 1.0,
 bar_l_incr = 0.1,   ! ntpr = bar_intervall for alchemical analysis tool

 timask1=':1', timask2=':2',
scmask1='',
scmask2=':2@C28,O29,C30,H50,H51,H52,H53',
 crgmask = '',
 /
 &ewald
 /

Note: ig = -1. Setting random seed to    38177 based on wallclock time in
      microseconds.

--------------------------------------------------------------------------------
   1.  RESOURCE   USE:
--------------------------------------------------------------------------------

 getting box info from netcdf restart file
 NATOM  =    5979 NTYPES =      16 NBONH =    5922 MBONA  =      59
 NTHETH =      86 MTHETA =      80 NPHIH =     132 MPHIA  =     124
 NHPARM =       0 NPARM  =       0 NNB   =    8319 NRES   =    1962
 NBONA  =      59 NTHETA =      80 NPHIA =     124 NUMBND =      21
 NUMANG =      31 NPTRA  =      21 NATYP =      17 NPHB   =       1
 IFBOX  =       1 NMXRS  =      53 IFCAP =       0 NEXTRA =       0
 NCOPY  =       0

     BOX TYPE: RECTILINEAR

--------------------------------------------------------------------------------
   2.  CONTROL  DATA  FOR  THE  RUN
--------------------------------------------------------------------------------

L0

General flags:
     imin    =       0, nmropt  =       0

Nature and format of input:
     ntx     =       5, irest   =       1, ntrx    =       1

Nature and format of output:
     ntxo    =       2, ntpr    =    1000, ntrx    =       1, ntwr    =   50000
     iwrap   =       1, ntwx    =   10000, ntwv    =       0, ntwe    =    1000
     ioutfm  =       1, ntwprt  =       0, idecomp =       0, rbornstat=      0

Potential function:
     ntf     =       1, ntb     =       2, igb     =       0, nsnb    =      25
     ipol    =       0, gbsa    =       0, iesp    =       0
     dielc   =   1.00000, cut     =   8.00000, intdiel =   1.00000

Frozen or restrained atoms:
     ibelly  =       0, ntr     =       0

Molecular dynamics:
     nstlim  =    500000, nscm    =      1000, nrespa  =         1
     t       =   0.00000, dt      =   0.00200, vlimit  =  -1.00000

Langevin dynamics temperature regulation:
     ig      =   38177
     temp0   = 298.00000, tempi   =   0.00000, gamma_ln=   2.00000

Pressure regulation:
     ntp     =       1
     pres0   =   1.01325, comp    =  44.60000, taup    =   2.00000
     Monte-Carlo Barostat:
     mcbarint  =     100

SHAKE:
     ntc     =       2, jfastw  =       0
     tol     =   0.00001

Free energy options:
     icfe    =       1, ifsc    =       1, klambda =       1
     clambda =  0.2063, scalpha =  0.5000, scbeta  = 12.0000
     sceeorder =       2
     dynlmb =  0.0000 logdvdl =       0

Ewald parameters:
     verbose =       0, ew_type =       0, nbflag  =       1, use_pme =       1
     vdwmeth =       1, eedmeth =       1, netfrc  =       1
     Box X =   40.877   Box Y =   43.011   Box Z =   34.124
     Alpha =   90.000   Beta  =   90.000   Gamma =   90.000
     NFFT1 =   48       NFFT2 =   48       NFFT3 =   36
     Cutoff=    8.000   Tol   =0.100E-04
     Ewald Coefficient =  0.34864
     Interpolation order =    4
     TI Mask 1 :1; matches     46 atoms
     TI Mask 2 :2; matches     53 atoms
     TI region 1:    5926 atoms
     TI region 2:    5933 atoms
     SC Mask 2 :2@C28,O29,C30,H50,H51,H52,H53; matches      7 atoms
 Noshake mask :1,2; matches      99 atoms.

--------------------------------------------------------------------------------
   3.  ATOMIC COORDINATES AND VELOCITIES
--------------------------------------------------------------------------------

L0
 begin time read from input coords =    20.000 ps

     Molecule     1 is partially softcore
     Molecule     2 is partially softcore
 Number of triangulated 3-point waters found:     1960
   Removing shake constraints from C27   L0    1 -- H44   L0    1
   Removing shake constraints from C27   L0    1 -- H45   L0    1
   Removing shake constraints from C27   L0    1 -- H46   L0    1
   Removing shake constraints from C25   L0    1 -- H43   L0    1
   Removing shake constraints from C21   L0    1 -- H42   L0    1
   Removing shake constraints from C20   L0    1 -- H39   L0    1
   Removing shake constraints from C20   L0    1 -- H40   L0    1
   Removing shake constraints from C20   L0    1 -- H41   L0    1
   Removing shake constraints from C16   L0    1 -- H37   L0    1
   Removing shake constraints from C16   L0    1 -- H38   L0    1
   Removing shake constraints from N13   L0    1 -- H36   L0    1
   Removing shake constraints from N9    L0    1 -- H35   L0    1
   Removing shake constraints from N9    L0    1 -- H34   L0    1
   Removing shake constraints from C7    L0    1 -- H33   L0    1
   Removing shake constraints from C2    L0    1 -- H31   L0    1
   Removing shake constraints from C2    L0    1 -- H32   L0    1
   Removing shake constraints from C1    L0    1 -- H28   L0    1
   Removing shake constraints from C1    L0    1 -- H29   L0    1
   Removing shake constraints from C1    L0    1 -- H30   L0    1
   Removing shake constraints from C30   INT   2 -- H52   INT   2
   Removing shake constraints from C30   INT   2 -- H53   INT   2
   Removing shake constraints from C30   INT   2 -- H51   INT   2
   Removing shake constraints from C26   INT   2 -- H47   INT   2
   Removing shake constraints from C26   INT   2 -- H48   INT   2
   Removing shake constraints from C26   INT   2 -- H49   INT   2
   Removing shake constraints from C24   INT   2 -- H46   INT   2
   Removing shake constraints from N27   INT   2 -- H50   INT   2
   Removing shake constraints from C21   INT   2 -- H45   INT   2
   Removing shake constraints from C20   INT   2 -- H42   INT   2
   Removing shake constraints from C20   INT   2 -- H43   INT   2
   Removing shake constraints from C20   INT   2 -- H44   INT   2
   Removing shake constraints from C16   INT   2 -- H40   INT   2
   Removing shake constraints from C16   INT   2 -- H41   INT   2
   Removing shake constraints from N13   INT   2 -- H39   INT   2
   Removing shake constraints from N9    INT   2 -- H38   INT   2
   Removing shake constraints from N9    INT   2 -- H37   INT   2
   Removing shake constraints from C7    INT   2 -- H36   INT   2
   Removing shake constraints from C2    INT   2 -- H34   INT   2
   Removing shake constraints from C2    INT   2 -- H35   INT   2
   Removing shake constraints from C1    INT   2 -- H31   INT   2
   Removing shake constraints from C1    INT   2 -- H32   INT   2
   Removing shake constraints from C1    INT   2 -- H33   INT   2
 WARNING: SHAKEn bond for atoms       69       96 is partially softcore.
 Coordinates for common atoms will be synchronized from V0.
 Consider using noshake mask or disabling SHAKE.

 Number of shake restraints removed in TI region  1 :       19
 Number of shake restraints removed in TI region  2 :       23

     Sum of charges for TI region  1 =   0.00001100
     Forcing neutrality...

     Sum of charges for TI region  2 =   0.00001100
     Forcing neutrality...

--------------------------------------------------------------------------------
   4.  RESULTS
 NSTEP =     1000   TIME(PS) =      22.000  TEMP(K) =   280.70  PRESS =     0.0
 Etot   =    -16213.8481  EKtot   =      3313.0266  EPtot      =    -19526.8747
 BOND   =        31.8787  ANGLE   =        16.2043  DIHED      =        18.9863
 1-4 NB =        13.1707  1-4 EEL =      -637.0648  VDWAALS    =      3066.9053
 EELEC  =    -22036.9550  EHBOND  =         0.0000  RESTRAINT  =         0.0000
 EKCMT  =         0.0000  VIRIAL  =         0.0000  VOLUME     =     60742.4215
                                                    Density    =         0.9772
 DV/DL  =        17.1647
 ------------------------------------------------------------------------------

      A V E R A G E S   O V E R   50000 S T E P S

 NSTEP =    50000   TIME(PS) =     120.000  TEMP(K) =   297.91  PRESS =     0.0
 Etot   =    -15535.9774  EKtot   =      3516.1661  EPtot      =    -19052.1435
 BOND   =        29.0147  ANGLE   =        20.7127  DIHED      =        17.0280
 1-4 NB =        14.8188  1-4 EEL =      -640.5854  VDWAALS    =      2800.8783
 EELEC  =    -21294.0108  EHBOND  =         0.0000  RESTRAINT  =         0.0000
 EKCMT  =         0.0000  VIRIAL  =         0.0000  VOLUME     =     59916.2250
                                                    Density    =         0.9908
 DV/DL  =        35.1883
 ------------------------------------------------------------------------------

      R M S  F L U C T U A T I O N S

 NSTEP =    50000   TIME(PS) =     120.000  TEMP(K) =    10.06  PRESS =     0.0
 Etot   =       398.8847  EKtot   =       118.7700  EPtot      =       290.1854
 BOND   =         3.8540  ANGLE   =         3.6147  DIHED      =         3.4597
 1-4 NB =         1.3696  1-4 EEL =         4.2406  VDWAALS    =       146.6300
 EELEC  =       424.6215  EHBOND  =         0.0000  RESTRAINT  =         0.0000
 EKCMT  =         0.0000  VIRIAL  =         0.0000  VOLUME     =       410.6138
                                                    Density    =         0.0068
 DV/DL  =        11.1111
 ------------------------------------------------------------------------------

      A V E R A G E S   O V E R   50000 S T E P S

 NSTEP =    50000   TIME(PS) =     120.000  TEMP(K) =   297.85  PRESS =     0.0
 Etot   =    -15530.4131  EKtot   =      3521.7304  EPtot      =    -19052.1435
 BOND   =        29.0147  ANGLE   =        20.7127  DIHED      =        17.0280
 1-4 NB =        14.8188  1-4 EEL =      -640.5854  VDWAALS    =      2800.8783
 EELEC  =    -21294.0108  EHBOND  =         0.0000  RESTRAINT  =         0.0000
 EKCMT  =         0.0000  VIRIAL  =         0.0000  VOLUME     =     59916.2250
                                                    Density    =         0.9920
 DV/DL  =        35.1883
 ------------------------------------------------------------------------------

      R M S  F L U C T U A T I O N S

 NSTEP =    50000   TIME(PS) =     120.000  TEMP(K) =    10.06  PRESS =     0.0
 Etot   =       399.0961  EKtot   =       118.9792  EPtot      =       290.1854
 BOND   =         3.8540  ANGLE   =         3.6147  DIHED      =         3.4597
 1-4 NB =         1.3696  1-4 EEL =         4.2406  VDWAALS    =       146.6300
 EELEC  =       424.6215  EHBOND  =         0.0000  RESTRAINT  =         0.0000
 EKCMT  =         0.0000  VIRIAL  =         0.0000  VOLUME     =       410.6138
                                                    Density    =         0.0068
 DV/DL  =        11.1111
 ------------------------------------------------------------------------------

      DV/DL, AVERAGES OVER   50000 STEPS

 NSTEP =    50000   TIME(PS) =     120.000  TEMP(K) =    10.06  PRESS =     0.0
 Etot   =         0.0000  EKtot   =         0.0000  EPtot      =        34.8427
 BOND   =         0.0000  ANGLE   =         0.0000  DIHED      =         0.0000
 1-4 NB =         0.0000  1-4 EEL =         0.0000  VDWAALS    =        -0.3367
 EELEC  =         0.0000  EHBOND  =         0.0000  RESTRAINT  =         0.0000
 EKCMT  =         0.0000  VIRIAL  =         0.0000  VOLUME     =         0.0000
                                                    Density    =         0.0000
 DV/DL  =        34.8427
 ------------------------------------------------------------------------------

      A V E R A G E S   O V E R   50000 S T E P S

 NSTEP =   100000   TIME(PS) =     220.000  TEMP(K) =   298.31  PRESS =     0.0
 Etot   =    -15497.6238  EKtot   =      3520.9354  EPtot      =    -19018.5592
 BOND   =        28.8411  ANGLE   =        19.8145  DIHED      =        17.1287
 1-4 NB =        15.1645  1-4 EEL =      -639.7235  VDWAALS    =      2782.5511
 EELEC  =    -21242.3356  EHBOND  =         0.0000  RESTRAINT  =         0.0000
 EKCMT  =         0.0000  VIRIAL  =         0.0000  VOLUME     =     60084.8238
                                                    Density    =         0.9880
 DV/DL  =        34.4827
 ------------------------------------------------------------------------------

      R M S  F L U C T U A T I O N S

 NSTEP =   100000   TIME(PS) =     220.000  TEMP(K) =     3.86  PRESS =     0.0
 Etot   =        79.3796  EKtot   =        45.5480  EPtot      =        65.9976
 BOND   =         3.7963  ANGLE   =         3.4790  DIHED      =         3.2357
 1-4 NB =         1.4218  1-4 EEL =         4.2984  VDWAALS    =        67.7742
 EELEC  =       107.2902  EHBOND  =         0.0000  RESTRAINT  =         0.0000
 EKCMT  =         0.0000  VIRIAL  =         0.0000  VOLUME     =       422.3683
                                                    Density    =         0.0070
 DV/DL  =        11.3687
 ------------------------------------------------------------------------------

      A V E R A G E S   O V E R   50000 S T E P S

 NSTEP =   100000   TIME(PS) =     220.000  TEMP(K) =   298.23  PRESS =     0.0
 Etot   =    -15492.3008  EKtot   =      3526.2584  EPtot      =    -19018.5592
 BOND   =        28.8411  ANGLE   =        19.8145  DIHED      =        17.1287
 1-4 NB =        15.1645  1-4 EEL =      -639.7235  VDWAALS    =      2782.5511
 EELEC  =    -21242.3356  EHBOND  =         0.0000  RESTRAINT  =         0.0000
 EKCMT  =         0.0000  VIRIAL  =         0.0000  VOLUME     =     60084.8238
                                                    Density    =         0.9892
 DV/DL  =        34.4827
 ------------------------------------------------------------------------------

      R M S  F L U C T U A T I O N S

 NSTEP =   100000   TIME(PS) =     220.000  TEMP(K) =     3.85  PRESS =     0.0
 Etot   =        79.3970  EKtot   =        45.5798  EPtot      =        65.9976
 BOND   =         3.7963  ANGLE   =         3.4790  DIHED      =         3.2357
 1-4 NB =         1.4218  1-4 EEL =         4.2984  VDWAALS    =        67.7742
 EELEC  =       107.2902  EHBOND  =         0.0000  RESTRAINT  =         0.0000
 EKCMT  =         0.0000  VIRIAL  =         0.0000  VOLUME     =       422.3683
                                                    Density    =         0.0070
 DV/DL  =        11.3687
 ------------------------------------------------------------------------------

      DV/DL, AVERAGES OVER   50000 STEPS

 NSTEP =   100000   TIME(PS) =     220.000  TEMP(K) =     3.85  PRESS =     0.0
 Etot   =         0.0000  EKtot   =         0.0000  EPtot      =        34.1395
 BOND   =         0.0000  ANGLE   =         0.0000  DIHED      =         0.0000
 1-4 NB =         0.0000  1-4 EEL =         0.0000  VDWAALS    =        -0.3357
 EELEC  =         0.0000  EHBOND  =         0.0000  RESTRAINT  =         0.0000
 EKCMT  =         0.0000  VIRIAL  =         0.0000  VOLUME     =         0.0000
                                                    Density    =         0.0000
 DV/DL  =        34.1395
 ------------------------------------------------------------------------------

      A V E R A G E S   O V E R   50000 S T E P S

 NSTEP =   500000   TIME(PS) =    1020.000  TEMP(K) =   298.40  PRESS =     0.0
 Etot   =    -15496.9645  EKtot   =      3522.0194  EPtot      =    -19018.9839
 BOND   =        28.9950  ANGLE   =        20.7230  DIHED      =        16.2958
 1-4 NB =        14.9091  1-4 EEL =      -640.3631  VDWAALS    =      2783.1345
 EELEC  =    -21242.6783  EHBOND  =         0.0000  RESTRAINT  =         0.0000
 EKCMT  =         0.0000  VIRIAL  =         0.0000  VOLUME     =     59966.7396
                                                    Density    =         0.9899
 DV/DL  =        33.3535
 ------------------------------------------------------------------------------

      R M S  F L U C T U A T I O N S

 NSTEP =   500000   TIME(PS) =    1020.000  TEMP(K) =     3.86  PRESS =     0.0
 Etot   =        76.7004  EKtot   =        45.6081  EPtot      =        64.3741
 BOND   =         3.7041  ANGLE   =         3.6669  DIHED      =         3.6625
 1-4 NB =         1.3726  1-4 EEL =         4.2910  VDWAALS    =        67.4139
 EELEC  =       104.5053  EHBOND  =         0.0000  RESTRAINT  =         0.0000
 EKCMT  =         0.0000  VIRIAL  =         0.0000  VOLUME     =       359.2898
                                                    Density    =         0.0059
 DV/DL  =        11.1190
 ------------------------------------------------------------------------------

      A V E R A G E S   O V E R   50000 S T E P S

 NSTEP =   500000   TIME(PS) =    1020.000  TEMP(K) =   298.33  PRESS =     0.0
 Etot   =    -15491.5665  EKtot   =      3527.4174  EPtot      =    -19018.9839
 BOND   =        28.9950  ANGLE   =        20.7230  DIHED      =        16.2958
 1-4 NB =        14.9091  1-4 EEL =      -640.3631  VDWAALS    =      2783.1345
 EELEC  =    -21242.6783  EHBOND  =         0.0000  RESTRAINT  =         0.0000
 EKCMT  =         0.0000  VIRIAL  =         0.0000  VOLUME     =     59966.7396
                                                    Density    =         0.9911
 DV/DL  =        33.3535
 ------------------------------------------------------------------------------

      R M S  F L U C T U A T I O N S

 NSTEP =   500000   TIME(PS) =    1020.000  TEMP(K) =     3.86  PRESS =     0.0
 Etot   =        76.6801  EKtot   =        45.6293  EPtot      =        64.3741
 BOND   =         3.7041  ANGLE   =         3.6669  DIHED      =         3.6625
 1-4 NB =         1.3726  1-4 EEL =         4.2910  VDWAALS    =        67.4139
 EELEC  =       104.5053  EHBOND  =         0.0000  RESTRAINT  =         0.0000
 EKCMT  =         0.0000  VIRIAL  =         0.0000  VOLUME     =       359.2898
                                                    Density    =         0.0059
 DV/DL  =        11.1190
 ------------------------------------------------------------------------------

      DV/DL, AVERAGES OVER   50000 STEPS

 NSTEP =   500000   TIME(PS) =    1020.000  TEMP(K) =     3.86  PRESS =     0.0
 Etot   =         0.0000  EKtot   =         0.0000  EPtot      =        33.0149
 BOND   =         0.0000  ANGLE   =         0.0000  DIHED      =         0.0000
 1-4 NB =         0.0000  1-4 EEL =         0.0000  VDWAALS    =        -0.3364
 EELEC  =         0.0000  EHBOND  =         0.0000  RESTRAINT  =         0.0000
 EKCMT  =         0.0000  VIRIAL  =         0.0000  VOLUME     =         0.0000
                                                    Density    =         0.0000
 DV/DL  =        33.0149
 ------------------------------------------------------------------------------

      A V E R A G E S   O V E R  500000 S T E P S

 NSTEP =   500000   TIME(PS) =    1020.000  TEMP(K) =   298.41  PRESS =     0.0
 Etot   =    -15499.2015  EKtot   =      3522.0772  EPtot      =    -19021.2787
 BOND   =        29.1158  ANGLE   =        20.2158  DIHED      =        17.0492
 1-4 NB =        15.0243  1-4 EEL =      -639.8959  VDWAALS    =      2786.2425
 EELEC  =    -21249.0303  EHBOND  =         0.0000  RESTRAINT  =         0.0000
 EKCMT  =         0.0000  VIRIAL  =         0.0000  VOLUME     =     60008.0474
                                                    Density    =         0.9892
 DV/DL  =        34.7885
 ------------------------------------------------------------------------------

      R M S  F L U C T U A T I O N S

 NSTEP =   500000   TIME(PS) =    1020.000  TEMP(K) =     4.85  PRESS =     0.0
 Etot   =       147.6496  EKtot   =        57.2798  EPtot      =       111.9788
 BOND   =         3.8084  ANGLE   =         3.5849  DIHED      =         3.4971
 1-4 NB =         1.4372  1-4 EEL =         4.2620  VDWAALS    =        80.2820
 EELEC  =       170.0557  EHBOND  =         0.0000  RESTRAINT  =         0.0000
 EKCMT  =         0.0000  VIRIAL  =         0.0000  VOLUME     =       391.6352
                                                    Density    =         0.0064
 DV/DL  =        11.2069
 ------------------------------------------------------------------------------

      A V E R A G E S   O V E R  500000 S T E P S

 NSTEP =   500000   TIME(PS) =    1020.000  TEMP(K) =   298.35  PRESS =     0.0
 Etot   =    -15493.7061  EKtot   =      3527.5726  EPtot      =    -19021.2787
 BOND   =        29.1158  ANGLE   =        20.2158  DIHED      =        17.0492
 1-4 NB =        15.0243  1-4 EEL =      -639.8959  VDWAALS    =      2786.2425
 EELEC  =    -21249.0303  EHBOND  =         0.0000  RESTRAINT  =         0.0000
 EKCMT  =         0.0000  VIRIAL  =         0.0000  VOLUME     =     60008.0474
                                                    Density    =         0.9905
 DV/DL  =        34.7885
 ------------------------------------------------------------------------------

      R M S  F L U C T U A T I O N S

 NSTEP =   500000   TIME(PS) =    1020.000  TEMP(K) =     4.85  PRESS =     0.0
 Etot   =       147.6970  EKtot   =        57.3386  EPtot      =       111.9788
 BOND   =         3.8084  ANGLE   =         3.5849  DIHED      =         3.4971
 1-4 NB =         1.4372  1-4 EEL =         4.2620  VDWAALS    =        80.2820
 EELEC  =       170.0557  EHBOND  =         0.0000  RESTRAINT  =         0.0000
 EKCMT  =         0.0000  VIRIAL  =         0.0000  VOLUME     =       391.6352
                                                    Density    =         0.0065
 DV/DL  =        11.2069
 ------------------------------------------------------------------------------

      DV/DL, AVERAGES OVER  500000 STEPS

 NSTEP =   500000   TIME(PS) =    1020.000  TEMP(K) =     4.85  PRESS =     0.0
 Etot   =         0.0000  EKtot   =         0.0000  EPtot      =        34.4398
 BOND   =         0.0000  ANGLE   =         0.0000  DIHED      =         0.0000
 1-4 NB =         0.0000  1-4 EEL =         0.0000  VDWAALS    =        -0.3361
 EELEC  =         0.0000  EHBOND  =         0.0000  RESTRAINT  =         0.0000
 EKCMT  =         0.0000  VIRIAL  =         0.0000  VOLUME     =         0.0000
                                                    Density    =         0.0000
 DV/DL  =        34.4398
 ------------------------------------------------------------------------------
