-------------------------------------------------------
          Amber 16 PMEMD                              2016
          -------------------------------------------------------

  [-O]verwriting output

File Assignments:

 Here is the input file:

TI/FEP, NpT, vdW+bonded transformation
 &cntrl
 ! please adjust namelist parameters to your needs!

 ! parameters for general MD
 imin = 0, nstlim = 500000, irest = 1, ntx = 5, dt = 0.002,
 ntt = 3, temp0 = 298.0, gamma_ln = 2.0, ig = -1,
 ntb = 2,
 ntp = 1, barostat = 2, pres0 = 1.01325, taup = 2.0,
 ntwe = 1000, ntwx = 10000, ntpr = 1000, ntwr = 50000, ntave = 50000,
 ioutfm = 1, iwrap = 1, ntxo = 2,

 ! parameters for alchemical free energy simulation
 ntc = 2, ntf = 1,
 noshakemask = ':1,2',

 icfe = 1, ifsc = 1, clambda = 0.31608, scalpha = 0.5, scbeta = 12.0,
 ifmbar = 0, bar_intervall = 500, bar_l_min = 0.0, bar_l_max = 1.0,
 bar_l_incr = 0.1,   ! ntpr = bar_intervall for alchemical analysis tool

 timask1=':1', timask2=':2',
scmask1='',
scmask2=':2@C28,O29,C30,H50,H51,H52,H53',
 crgmask = '',
 /
 &ewald
 /

Note: ig = -1. Setting random seed to   302931 based on wallclock time in
      microseconds.

--------------------------------------------------------------------------------
   1.  RESOURCE   USE:
--------------------------------------------------------------------------------

 getting box info from netcdf restart file
 NATOM  =    5979 NTYPES =      16 NBONH =    5922 MBONA  =      59
 NTHETH =      86 MTHETA =      80 NPHIH =     132 MPHIA  =     124
 NHPARM =       0 NPARM  =       0 NNB   =    8319 NRES   =    1962
 NBONA  =      59 NTHETA =      80 NPHIA =     124 NUMBND =      21
 NUMANG =      31 NPTRA  =      21 NATYP =      17 NPHB   =       1
 IFBOX  =       1 NMXRS  =      53 IFCAP =       0 NEXTRA =       0
 NCOPY  =       0

     BOX TYPE: RECTILINEAR

--------------------------------------------------------------------------------
   2.  CONTROL  DATA  FOR  THE  RUN
--------------------------------------------------------------------------------

L0

General flags:
     imin    =       0, nmropt  =       0

Nature and format of input:
     ntx     =       5, irest   =       1, ntrx    =       1

Nature and format of output:
     ntxo    =       2, ntpr    =    1000, ntrx    =       1, ntwr    =   50000
     iwrap   =       1, ntwx    =   10000, ntwv    =       0, ntwe    =    1000
     ioutfm  =       1, ntwprt  =       0, idecomp =       0, rbornstat=      0

Potential function:
     ntf     =       1, ntb     =       2, igb     =       0, nsnb    =      25
     ipol    =       0, gbsa    =       0, iesp    =       0
     dielc   =   1.00000, cut     =   8.00000, intdiel =   1.00000

Frozen or restrained atoms:
     ibelly  =       0, ntr     =       0

Molecular dynamics:
     nstlim  =    500000, nscm    =      1000, nrespa  =         1
     t       =   0.00000, dt      =   0.00200, vlimit  =  -1.00000

Langevin dynamics temperature regulation:
     ig      =  302931
     temp0   = 298.00000, tempi   =   0.00000, gamma_ln=   2.00000

Pressure regulation:
     ntp     =       1
     pres0   =   1.01325, comp    =  44.60000, taup    =   2.00000
     Monte-Carlo Barostat:
     mcbarint  =     100

SHAKE:
     ntc     =       2, jfastw  =       0
     tol     =   0.00001

Free energy options:
     icfe    =       1, ifsc    =       1, klambda =       1
     clambda =  0.3161, scalpha =  0.5000, scbeta  = 12.0000
     sceeorder =       2
     dynlmb =  0.0000 logdvdl =       0

Ewald parameters:
     verbose =       0, ew_type =       0, nbflag  =       1, use_pme =       1
     vdwmeth =       1, eedmeth =       1, netfrc  =       1
     Box X =   40.877   Box Y =   43.011   Box Z =   34.124
     Alpha =   90.000   Beta  =   90.000   Gamma =   90.000
     NFFT1 =   48       NFFT2 =   48       NFFT3 =   36
     Cutoff=    8.000   Tol   =0.100E-04
     Ewald Coefficient =  0.34864
     Interpolation order =    4
     TI Mask 1 :1; matches     46 atoms
     TI Mask 2 :2; matches     53 atoms
     TI region 1:    5926 atoms
     TI region 2:    5933 atoms
     SC Mask 2 :2@C28,O29,C30,H50,H51,H52,H53; matches      7 atoms
 Noshake mask :1,2; matches      99 atoms.

--------------------------------------------------------------------------------
   3.  ATOMIC COORDINATES AND VELOCITIES
--------------------------------------------------------------------------------

L0
 begin time read from input coords =    20.000 ps

     Molecule     1 is partially softcore
     Molecule     2 is partially softcore
 Number of triangulated 3-point waters found:     1960
   Removing shake constraints from C27   L0    1 -- H44   L0    1
   Removing shake constraints from C27   L0    1 -- H45   L0    1
   Removing shake constraints from C27   L0    1 -- H46   L0    1
   Removing shake constraints from C25   L0    1 -- H43   L0    1
   Removing shake constraints from C21   L0    1 -- H42   L0    1
   Removing shake constraints from C20   L0    1 -- H39   L0    1
   Removing shake constraints from C20   L0    1 -- H40   L0    1
   Removing shake constraints from C20   L0    1 -- H41   L0    1
   Removing shake constraints from C16   L0    1 -- H37   L0    1
   Removing shake constraints from C16   L0    1 -- H38   L0    1
   Removing shake constraints from N13   L0    1 -- H36   L0    1
   Removing shake constraints from N9    L0    1 -- H35   L0    1
   Removing shake constraints from N9    L0    1 -- H34   L0    1
   Removing shake constraints from C7    L0    1 -- H33   L0    1
   Removing shake constraints from C2    L0    1 -- H31   L0    1
   Removing shake constraints from C2    L0    1 -- H32   L0    1
   Removing shake constraints from C1    L0    1 -- H28   L0    1
   Removing shake constraints from C1    L0    1 -- H29   L0    1
   Removing shake constraints from C1    L0    1 -- H30   L0    1
   Removing shake constraints from C30   INT   2 -- H52   INT   2
   Removing shake constraints from C30   INT   2 -- H53   INT   2
   Removing shake constraints from C30   INT   2 -- H51   INT   2
   Removing shake constraints from C26   INT   2 -- H47   INT   2
   Removing shake constraints from C26   INT   2 -- H48   INT   2
   Removing shake constraints from C26   INT   2 -- H49   INT   2
   Removing shake constraints from C24   INT   2 -- H46   INT   2
   Removing shake constraints from N27   INT   2 -- H50   INT   2
   Removing shake constraints from C21   INT   2 -- H45   INT   2
   Removing shake constraints from C20   INT   2 -- H42   INT   2
   Removing shake constraints from C20   INT   2 -- H43   INT   2
   Removing shake constraints from C20   INT   2 -- H44   INT   2
   Removing shake constraints from C16   INT   2 -- H40   INT   2
   Removing shake constraints from C16   INT   2 -- H41   INT   2
   Removing shake constraints from N13   INT   2 -- H39   INT   2
   Removing shake constraints from N9    INT   2 -- H38   INT   2
   Removing shake constraints from N9    INT   2 -- H37   INT   2
   Removing shake constraints from C7    INT   2 -- H36   INT   2
   Removing shake constraints from C2    INT   2 -- H34   INT   2
   Removing shake constraints from C2    INT   2 -- H35   INT   2
   Removing shake constraints from C1    INT   2 -- H31   INT   2
   Removing shake constraints from C1    INT   2 -- H32   INT   2
   Removing shake constraints from C1    INT   2 -- H33   INT   2
 WARNING: SHAKEn bond for atoms       69       96 is partially softcore.
 Coordinates for common atoms will be synchronized from V0.
 Consider using noshake mask or disabling SHAKE.

 Number of shake restraints removed in TI region  1 :       19
 Number of shake restraints removed in TI region  2 :       23

     Sum of charges for TI region  1 =   0.00001100
     Forcing neutrality...

     Sum of charges for TI region  2 =   0.00001100
     Forcing neutrality...

--------------------------------------------------------------------------------
   4.  RESULTS
 NSTEP =     1000   TIME(PS) =      22.000  TEMP(K) =   274.38  PRESS =     0.0
 Etot   =    -16397.9970  EKtot   =      3238.4905  EPtot      =    -19636.4875
 BOND   =        33.5290  ANGLE   =        27.1553  DIHED      =        15.4246
 1-4 NB =        15.4240  1-4 EEL =      -642.7879  VDWAALS    =      3061.2289
 EELEC  =    -22146.4614  EHBOND  =         0.0000  RESTRAINT  =         0.0000
 EKCMT  =         0.0000  VIRIAL  =         0.0000  VOLUME     =     59824.9886
                                                    Density    =         0.9922
 DV/DL  =        23.1309
 ------------------------------------------------------------------------------

      A V E R A G E S   O V E R   50000 S T E P S

 NSTEP =    50000   TIME(PS) =     120.000  TEMP(K) =   297.50  PRESS =     0.0
 Etot   =    -15544.8386  EKtot   =      3511.3936  EPtot      =    -19056.2321
 BOND   =        31.7944  ANGLE   =        20.0445  DIHED      =        17.5359
 1-4 NB =        15.2597  1-4 EEL =      -640.6400  VDWAALS    =      2804.3887
 EELEC  =    -21304.6153  EHBOND  =         0.0000  RESTRAINT  =         0.0000
 EKCMT  =         0.0000  VIRIAL  =         0.0000  VOLUME     =     59974.3073
                                                    Density    =         0.9898
 DV/DL  =        18.4033
 ------------------------------------------------------------------------------

      R M S  F L U C T U A T I O N S

 NSTEP =    50000   TIME(PS) =     120.000  TEMP(K) =    10.15  PRESS =     0.0
 Etot   =       398.5245  EKtot   =       119.7689  EPtot      =       288.8880
 BOND   =         3.9738  ANGLE   =         3.6123  DIHED      =         3.1506
 1-4 NB =         1.4547  1-4 EEL =         4.3100  VDWAALS    =       142.6524
 EELEC  =       418.5955  EHBOND  =         0.0000  RESTRAINT  =         0.0000
 EKCMT  =         0.0000  VIRIAL  =         0.0000  VOLUME     =       430.9375
                                                    Density    =         0.0071
 DV/DL  =        10.7646
 ------------------------------------------------------------------------------

      A V E R A G E S   O V E R   50000 S T E P S

 NSTEP =    50000   TIME(PS) =     120.000  TEMP(K) =   297.44  PRESS =     0.0
 Etot   =    -15539.3255  EKtot   =      3516.9066  EPtot      =    -19056.2321
 BOND   =        31.7944  ANGLE   =        20.0445  DIHED      =        17.5359
 1-4 NB =        15.2597  1-4 EEL =      -640.6400  VDWAALS    =      2804.3887
 EELEC  =    -21304.6153  EHBOND  =         0.0000  RESTRAINT  =         0.0000
 EKCMT  =         0.0000  VIRIAL  =         0.0000  VOLUME     =     59974.3073
                                                    Density    =         0.9910
 DV/DL  =        18.4033
 ------------------------------------------------------------------------------

      R M S  F L U C T U A T I O N S

 NSTEP =    50000   TIME(PS) =     120.000  TEMP(K) =    10.14  PRESS =     0.0
 Etot   =       398.6172  EKtot   =       119.8769  EPtot      =       288.8880
 BOND   =         3.9738  ANGLE   =         3.6123  DIHED      =         3.1506
 1-4 NB =         1.4547  1-4 EEL =         4.3100  VDWAALS    =       142.6524
 EELEC  =       418.5955  EHBOND  =         0.0000  RESTRAINT  =         0.0000
 EKCMT  =         0.0000  VIRIAL  =         0.0000  VOLUME     =       430.9375
                                                    Density    =         0.0071
 DV/DL  =        10.7646
 ------------------------------------------------------------------------------

      DV/DL, AVERAGES OVER   50000 STEPS

 NSTEP =    50000   TIME(PS) =     120.000  TEMP(K) =    10.14  PRESS =     0.0
 Etot   =         0.0000  EKtot   =         0.0000  EPtot      =        18.2201
 BOND   =         0.0000  ANGLE   =         0.0000  DIHED      =         0.0000
 1-4 NB =         0.0000  1-4 EEL =         0.0000  VDWAALS    =        -0.3363
 EELEC  =         0.0000  EHBOND  =         0.0000  RESTRAINT  =         0.0000
 EKCMT  =         0.0000  VIRIAL  =         0.0000  VOLUME     =         0.0000
                                                    Density    =         0.0000
 DV/DL  =        18.2201
 ------------------------------------------------------------------------------

      A V E R A G E S   O V E R   50000 S T E P S

 NSTEP =   100000   TIME(PS) =     220.000  TEMP(K) =   298.47  PRESS =     0.0
 Etot   =    -15475.3022  EKtot   =      3522.8597  EPtot      =    -18998.1619
 BOND   =        31.4378  ANGLE   =        20.0615  DIHED      =        16.7364
 1-4 NB =        15.2230  1-4 EEL =      -640.9192  VDWAALS    =      2781.4903
 EELEC  =    -21222.1916  EHBOND  =         0.0000  RESTRAINT  =         0.0000
 EKCMT  =         0.0000  VIRIAL  =         0.0000  VOLUME     =     60237.8048
                                                    Density    =         0.9855
 DV/DL  =        18.6354
 ------------------------------------------------------------------------------

      R M S  F L U C T U A T I O N S

 NSTEP =   100000   TIME(PS) =     220.000  TEMP(K) =     3.88  PRESS =     0.0
 Etot   =        81.3084  EKtot   =        45.8397  EPtot      =        68.8154
 BOND   =         3.8457  ANGLE   =         3.6211  DIHED      =         3.5614
 1-4 NB =         1.4564  1-4 EEL =         4.2884  VDWAALS    =        69.6309
 EELEC  =       111.6148  EHBOND  =         0.0000  RESTRAINT  =         0.0000
 EKCMT  =         0.0000  VIRIAL  =         0.0000  VOLUME     =       419.7668
                                                    Density    =         0.0069
 DV/DL  =        11.0323
 ------------------------------------------------------------------------------

      A V E R A G E S   O V E R   50000 S T E P S

 NSTEP =   100000   TIME(PS) =     220.000  TEMP(K) =   298.41  PRESS =     0.0
 Etot   =    -15469.7803  EKtot   =      3528.3816  EPtot      =    -18998.1619
 BOND   =        31.4378  ANGLE   =        20.0615  DIHED      =        16.7364
 1-4 NB =        15.2230  1-4 EEL =      -640.9192  VDWAALS    =      2781.4903
 EELEC  =    -21222.1916  EHBOND  =         0.0000  RESTRAINT  =         0.0000
 EKCMT  =         0.0000  VIRIAL  =         0.0000  VOLUME     =     60237.8048
                                                    Density    =         0.9867
 DV/DL  =        18.6354
 ------------------------------------------------------------------------------

      R M S  F L U C T U A T I O N S

 NSTEP =   100000   TIME(PS) =     220.000  TEMP(K) =     3.88  PRESS =     0.0
 Etot   =        81.3546  EKtot   =        45.9101  EPtot      =        68.8154
 BOND   =         3.8457  ANGLE   =         3.6211  DIHED      =         3.5614
 1-4 NB =         1.4564  1-4 EEL =         4.2884  VDWAALS    =        69.6309
 EELEC  =       111.6148  EHBOND  =         0.0000  RESTRAINT  =         0.0000
 EKCMT  =         0.0000  VIRIAL  =         0.0000  VOLUME     =       419.7668
                                                    Density    =         0.0069
 DV/DL  =        11.0323
 ------------------------------------------------------------------------------

      DV/DL, AVERAGES OVER   50000 STEPS

 NSTEP =   100000   TIME(PS) =     220.000  TEMP(K) =     3.88  PRESS =     0.0
 Etot   =         0.0000  EKtot   =         0.0000  EPtot      =        18.4499
 BOND   =         0.0000  ANGLE   =         0.0000  DIHED      =         0.0000
 1-4 NB =         0.0000  1-4 EEL =         0.0000  VDWAALS    =        -0.3349
 EELEC  =         0.0000  EHBOND  =         0.0000  RESTRAINT  =         0.0000
 EKCMT  =         0.0000  VIRIAL  =         0.0000  VOLUME     =         0.0000
                                                    Density    =         0.0000
 DV/DL  =        18.4499
 ------------------------------------------------------------------------------

      A V E R A G E S   O V E R   50000 S T E P S

 NSTEP =   500000   TIME(PS) =    1020.000  TEMP(K) =   298.28  PRESS =     0.0
 Etot   =    -15494.9494  EKtot   =      3520.5213  EPtot      =    -19015.4707
 BOND   =        31.0554  ANGLE   =        20.1681  DIHED      =        17.4954
 1-4 NB =        15.1432  1-4 EEL =      -640.2411  VDWAALS    =      2785.5969
 EELEC  =    -21244.6886  EHBOND  =         0.0000  RESTRAINT  =         0.0000
 EKCMT  =         0.0000  VIRIAL  =         0.0000  VOLUME     =     60108.8851
                                                    Density    =         0.9876
 DV/DL  =        18.9881
 ------------------------------------------------------------------------------

      R M S  F L U C T U A T I O N S

 NSTEP =   500000   TIME(PS) =    1020.000  TEMP(K) =     3.78  PRESS =     0.0
 Etot   =        79.1636  EKtot   =        44.5889  EPtot      =        67.4262
 BOND   =         3.7327  ANGLE   =         3.5532  DIHED      =         3.6020
 1-4 NB =         1.4363  1-4 EEL =         4.5172  VDWAALS    =        68.7812
 EELEC  =       110.3806  EHBOND  =         0.0000  RESTRAINT  =         0.0000
 EKCMT  =         0.0000  VIRIAL  =         0.0000  VOLUME     =       392.4714
                                                    Density    =         0.0065
 DV/DL  =        11.0747
 ------------------------------------------------------------------------------

      A V E R A G E S   O V E R   50000 S T E P S

 NSTEP =   500000   TIME(PS) =    1020.000  TEMP(K) =   298.21  PRESS =     0.0
 Etot   =    -15489.4522  EKtot   =      3526.0185  EPtot      =    -19015.4707
 BOND   =        31.0554  ANGLE   =        20.1681  DIHED      =        17.4954
 1-4 NB =        15.1432  1-4 EEL =      -640.2411  VDWAALS    =      2785.5969
 EELEC  =    -21244.6886  EHBOND  =         0.0000  RESTRAINT  =         0.0000
 EKCMT  =         0.0000  VIRIAL  =         0.0000  VOLUME     =     60108.8851
                                                    Density    =         0.9888
 DV/DL  =        18.9881
 ------------------------------------------------------------------------------

      R M S  F L U C T U A T I O N S

 NSTEP =   500000   TIME(PS) =    1020.000  TEMP(K) =     3.77  PRESS =     0.0
 Etot   =        79.1297  EKtot   =        44.5666  EPtot      =        67.4262
 BOND   =         3.7327  ANGLE   =         3.5532  DIHED      =         3.6020
 1-4 NB =         1.4363  1-4 EEL =         4.5172  VDWAALS    =        68.7812
 EELEC  =       110.3806  EHBOND  =         0.0000  RESTRAINT  =         0.0000
 EKCMT  =         0.0000  VIRIAL  =         0.0000  VOLUME     =       392.4714
                                                    Density    =         0.0065
 DV/DL  =        11.0747
 ------------------------------------------------------------------------------

      DV/DL, AVERAGES OVER   50000 STEPS

 NSTEP =   500000   TIME(PS) =    1020.000  TEMP(K) =     3.77  PRESS =     0.0
 Etot   =         0.0000  EKtot   =         0.0000  EPtot      =        18.8017
 BOND   =         0.0000  ANGLE   =         0.0000  DIHED      =         0.0000
 1-4 NB =         0.0000  1-4 EEL =         0.0000  VDWAALS    =        -0.3356
 EELEC  =         0.0000  EHBOND  =         0.0000  RESTRAINT  =         0.0000
 EKCMT  =         0.0000  VIRIAL  =         0.0000  VOLUME     =         0.0000
                                                    Density    =         0.0000
 DV/DL  =        18.8017
 ------------------------------------------------------------------------------

      A V E R A G E S   O V E R  500000 S T E P S

 NSTEP =   500000   TIME(PS) =    1020.000  TEMP(K) =   298.37  PRESS =     0.0
 Etot   =    -15494.6122  EKtot   =      3521.6668  EPtot      =    -19016.2790
 BOND   =        31.3842  ANGLE   =        20.1708  DIHED      =        16.8532
 1-4 NB =        15.1489  1-4 EEL =      -640.1145  VDWAALS    =      2785.8696
 EELEC  =    -21245.5911  EHBOND  =         0.0000  RESTRAINT  =         0.0000
 EKCMT  =         0.0000  VIRIAL  =         0.0000  VOLUME     =     60066.2476
                                                    Density    =         0.9883
 DV/DL  =        18.4192
 ------------------------------------------------------------------------------

      R M S  F L U C T U A T I O N S

 NSTEP =   500000   TIME(PS) =    1020.000  TEMP(K) =     4.87  PRESS =     0.0
 Etot   =       147.4099  EKtot   =        57.5243  EPtot      =       111.5247
 BOND   =         3.8261  ANGLE   =         3.5862  DIHED      =         3.4674
 1-4 NB =         1.4422  1-4 EEL =         4.3611  VDWAALS    =        79.8113
 EELEC  =       168.8054  EHBOND  =         0.0000  RESTRAINT  =         0.0000
 EKCMT  =         0.0000  VIRIAL  =         0.0000  VOLUME     =       403.0638
                                                    Density    =         0.0066
 DV/DL  =        10.8342
 ------------------------------------------------------------------------------

      A V E R A G E S   O V E R  500000 S T E P S

 NSTEP =   500000   TIME(PS) =    1020.000  TEMP(K) =   298.31  PRESS =     0.0
 Etot   =    -15489.1086  EKtot   =      3527.1704  EPtot      =    -19016.2790
 BOND   =        31.3842  ANGLE   =        20.1708  DIHED      =        16.8532
 1-4 NB =        15.1489  1-4 EEL =      -640.1145  VDWAALS    =      2785.8696
 EELEC  =    -21245.5911  EHBOND  =         0.0000  RESTRAINT  =         0.0000
 EKCMT  =         0.0000  VIRIAL  =         0.0000  VOLUME     =     60066.2476
                                                    Density    =         0.9895
 DV/DL  =        18.4192
 ------------------------------------------------------------------------------

      R M S  F L U C T U A T I O N S

 NSTEP =   500000   TIME(PS) =    1020.000  TEMP(K) =     4.87  PRESS =     0.0
 Etot   =       147.4577  EKtot   =        57.5707  EPtot      =       111.5247
 BOND   =         3.8261  ANGLE   =         3.5862  DIHED      =         3.4674
 1-4 NB =         1.4422  1-4 EEL =         4.3611  VDWAALS    =        79.8113
 EELEC  =       168.8054  EHBOND  =         0.0000  RESTRAINT  =         0.0000
 EKCMT  =         0.0000  VIRIAL  =         0.0000  VOLUME     =       403.0638
                                                    Density    =         0.0066
 DV/DL  =        10.8342
 ------------------------------------------------------------------------------

      DV/DL, AVERAGES OVER  500000 STEPS

 NSTEP =   500000   TIME(PS) =    1020.000  TEMP(K) =     4.87  PRESS =     0.0
 Etot   =         0.0000  EKtot   =         0.0000  EPtot      =        18.2351
 BOND   =         0.0000  ANGLE   =         0.0000  DIHED      =         0.0000
 1-4 NB =         0.0000  1-4 EEL =         0.0000  VDWAALS    =        -0.3358
 EELEC  =         0.0000  EHBOND  =         0.0000  RESTRAINT  =         0.0000
 EKCMT  =         0.0000  VIRIAL  =         0.0000  VOLUME     =         0.0000
                                                    Density    =         0.0000
 DV/DL  =        18.2351
 ------------------------------------------------------------------------------
